@<TRIPOS>MOLECULE
MOL
    8     8     1     0     0
SMALL
resp


@<TRIPOS>ATOM
      1 C1          -0.0290     1.2400     0.0040 C.2        1 MOL      -0.313284
      2 C2           1.2420     0.7410    -0.0030 C.2        1 MOL       0.146504
      3 N1           1.3550    -0.6320    -0.0090 N.2        1 MOL      -0.421546
      4 C3           0.1770    -1.1830    -0.0050 C.2        1 MOL       0.112380
      5 S1          -1.1720    -0.0650     0.0060 S.3        1 MOL       0.026626
      6 H1          -0.3490     2.2730     0.0090 H          1 MOL       0.214434
      7 H2           2.1430     1.3430    -0.0050 H          1 MOL       0.101633
      8 H3           0.0070    -2.2540    -0.0080 H          1 MOL       0.133251
@<TRIPOS>BOND
     1     1     2 2   
     2     1     5 1   
     3     1     6 1   
     4     2     3 1   
     5     2     7 1   
     6     3     4 2   
     7     4     5 1   
     8     4     8 1   
@<TRIPOS>SUBSTRUCTURE
     1 MOL         1 TEMP              0 ****  ****    0 ROOT
