@<TRIPOS>MOLECULE
BCl_esp.mol2
 4061 0 1
SMALL
USER_CHARGES
@<TRIPOS>ATOM
      1 H           0.2653   -1.2149    2.1021 H     1    ESP        -0.0141
      2 H           0.7326   -1.2149    2.0494 H     1    ESP        -0.0155
      3 H           0.4990   -0.8103    2.0494 H     1    ESP        -0.0166
      4 H           0.0317   -0.8103    2.0494 H     1    ESP        -0.0153
      5 H          -0.2019   -1.2149    2.0494 H     1    ESP        -0.0123
      6 H           0.0317   -1.6196    2.0494 H     1    ESP        -0.0101
      7 H           0.4990   -1.6196    2.0494 H     1    ESP        -0.0118
      8 H           0.7209   -0.4259    1.8941 H     1    ESP        -0.0167
      9 H          -0.6458   -1.2149    1.8941 H     1    ESP        -0.0099
     10 H          -0.5237   -1.6705    1.8941 H     1    ESP        -0.0071
     11 H          -0.1902   -2.0040    1.8941 H     1    ESP        -0.0051
     12 H           0.2653   -2.1261    1.8941 H     1    ESP        -0.0053
     13 H           0.7209   -2.0040    1.8941 H     1    ESP        -0.0078
     14 H           0.9200   -0.0810    1.6439 H     1    ESP        -0.0130
     15 H          -0.9650   -1.6628    1.6439 H     1    ESP        -0.0045
     16 H          -0.7377   -2.0566    1.6439 H     1    ESP        -0.0010
     17 H           0.0380   -2.5044    1.6439 H     1    ESP         0.0017
     18 H           0.4927   -2.5044    1.6439 H     1    ESP         0.0004
     19 H           0.9200   -2.3489    1.6439 H     1    ESP        -0.0017
     20 H           0.9474   -2.7084    1.3114 H     1    ESP         0.0069
     21 H           0.9363   -2.9840    0.9132 H     1    ESP         0.0154
     22 H           0.9363   -2.9840   -0.9091 H     1    ESP         0.0152
     23 H           0.9474   -2.7084   -1.3073 H     1    ESP         0.0067
     24 H           0.9200   -0.0810   -1.6398 H     1    ESP        -0.0133
     25 H          -0.9650   -1.6628   -1.6398 H     1    ESP        -0.0043
     26 H          -0.7377   -2.0566   -1.6398 H     1    ESP        -0.0007
     27 H           0.0380   -2.5044   -1.6398 H     1    ESP         0.0019
     28 H           0.4927   -2.5044   -1.6398 H     1    ESP         0.0005
     29 H           0.9200   -2.3489   -1.6398 H     1    ESP        -0.0018
     30 H           0.7209   -0.4259   -1.8900 H     1    ESP        -0.0167
     31 H          -0.6458   -1.2149   -1.8900 H     1    ESP        -0.0097
     32 H          -0.5237   -1.6705   -1.8900 H     1    ESP        -0.0069
     33 H          -0.1902   -2.0040   -1.8900 H     1    ESP        -0.0049
     34 H           0.2653   -2.1261   -1.8900 H     1    ESP        -0.0052
     35 H           0.7209   -2.0040   -1.8900 H     1    ESP        -0.0078
     36 H           0.7326   -1.2149   -2.0453 H     1    ESP        -0.0154
     37 H           0.4990   -0.8103   -2.0453 H     1    ESP        -0.0165
     38 H           0.0317   -0.8103   -2.0453 H     1    ESP        -0.0152
     39 H          -0.2019   -1.2149   -2.0453 H     1    ESP        -0.0121
     40 H           0.0317   -1.6196   -2.0453 H     1    ESP        -0.0100
     41 H           0.4990   -1.6196   -2.0453 H     1    ESP        -0.0116
     42 H           0.2653   -1.2149   -2.0979 H     1    ESP        -0.0140
     43 H           1.6611   -1.1989    2.1146 H     1    ESP        -0.0134
     44 H           2.1284   -1.1989    2.0619 H     1    ESP        -0.0108
     45 H           1.8947   -0.7943    2.0619 H     1    ESP        -0.0152
     46 H           1.4274   -0.7943    2.0619 H     1    ESP        -0.0167
     47 H           1.1938   -1.1989    2.0619 H     1    ESP        -0.0153
     48 H           1.4274   -1.6036    2.0619 H     1    ESP        -0.0111
     49 H           1.8947   -1.6036    2.0619 H     1    ESP        -0.0085
     50 H           2.5722   -1.1989    1.9066 H     1    ESP        -0.0070
     51 H           1.2055   -0.4099    1.9066 H     1    ESP        -0.0172
     52 H           1.2055   -1.9880    1.9066 H     1    ESP        -0.0075
     53 H           1.6611   -2.1101    1.9066 H     1    ESP        -0.0040
     54 H           2.1167   -1.9880    1.9066 H     1    ESP        -0.0026
     55 H           2.4502   -1.6545    1.9066 H     1    ESP        -0.0037
     56 H           2.9704   -1.1989    1.6564 H     1    ESP        -0.0012
     57 H           1.0064   -0.0650    1.6564 H     1    ESP        -0.0135
     58 H           1.0064   -2.3329    1.6564 H     1    ESP        -0.0019
     59 H           1.4337   -2.4884    1.6564 H     1    ESP         0.0012
     60 H           1.8884   -2.4884    1.6564 H     1    ESP         0.0036
     61 H           2.6641   -2.0406    1.6564 H     1    ESP         0.0038
     62 H           2.8915   -1.6468    1.6564 H     1    ESP         0.0017
     63 H           0.9790   -2.6924    1.3239 H     1    ESP         0.0066
     64 H           3.2364   -1.6615    1.3239 H     1    ESP         0.0084
     65 H           0.9902   -2.9680    0.9257 H     1    ESP         0.0152
     66 H           3.2364   -1.6615   -1.2947 H     1    ESP         0.0079
     67 H           2.9704   -1.1989   -1.6273 H     1    ESP        -0.0017
     68 H           1.0064   -0.0650   -1.6273 H     1    ESP        -0.0132
     69 H           1.0064   -2.3329   -1.6273 H     1    ESP        -0.0018
     70 H           1.4337   -2.4884   -1.6273 H     1    ESP         0.0011
     71 H           1.8884   -2.4884   -1.6273 H     1    ESP         0.0034
     72 H           2.6641   -2.0406   -1.6273 H     1    ESP         0.0035
     73 H           2.8915   -1.6468   -1.6273 H     1    ESP         0.0012
     74 H           2.5722   -1.1989   -1.8774 H     1    ESP        -0.0073
     75 H           1.2055   -0.4099   -1.8774 H     1    ESP        -0.0172
     76 H           1.2055   -1.9880   -1.8774 H     1    ESP        -0.0075
     77 H           1.6611   -2.1101   -1.8774 H     1    ESP        -0.0041
     78 H           2.1167   -1.9880   -1.8774 H     1    ESP        -0.0028
     79 H           2.4502   -1.6545   -1.8774 H     1    ESP        -0.0040
     80 H           2.1284   -1.1989   -2.0328 H     1    ESP        -0.0110
     81 H           1.8947   -0.7943   -2.0328 H     1    ESP        -0.0154
     82 H           1.4274   -0.7943   -2.0328 H     1    ESP        -0.0168
     83 H           1.1938   -1.1989   -2.0328 H     1    ESP        -0.0154
     84 H           1.4274   -1.6036   -2.0328 H     1    ESP        -0.0112
     85 H           1.8947   -1.6036   -2.0328 H     1    ESP        -0.0087
     86 H           1.6611   -1.1989   -2.0854 H     1    ESP        -0.0136
     87 H           2.3553    0.0124    2.1214 H     1    ESP        -0.0136
     88 H           2.8226    0.0124    2.0687 H     1    ESP        -0.0087
     89 H           2.5889    0.4171    2.0687 H     1    ESP        -0.0110
     90 H           2.1217    0.4171    2.0687 H     1    ESP        -0.0153
     91 H           1.8880    0.0124    2.0687 H     1    ESP        -0.0168
     92 H           2.1217   -0.3922    2.0687 H     1    ESP        -0.0154
     93 H           2.5889   -0.3922    2.0687 H     1    ESP        -0.0111
     94 H           3.2665    0.0124    1.9134 H     1    ESP        -0.0029
     95 H           3.1444    0.4680    1.9134 H     1    ESP        -0.0040
     96 H           2.8109    0.8015    1.9134 H     1    ESP        -0.0071
     97 H           1.4441    0.0124    1.9134 H     1    ESP        -0.0175
     98 H           2.8109   -0.7766    1.9134 H     1    ESP        -0.0072
     99 H           3.1444   -0.4431    1.9134 H     1    ESP        -0.0040
    100 H           3.5857    0.4603    1.6632 H     1    ESP         0.0035
    101 H           3.3583    0.8541    1.6632 H     1    ESP         0.0014
    102 H           3.0100    1.1464    1.6632 H     1    ESP        -0.0013
    103 H           1.0460    0.0124    1.6632 H     1    ESP        -0.0137
    104 H           3.0100   -1.1215    1.6632 H     1    ESP        -0.0014
    105 H           3.3583   -0.8292    1.6632 H     1    ESP         0.0013
    106 H           3.5857   -0.4354    1.6632 H     1    ESP         0.0034
    107 H           3.4305    1.2533    1.3307 H     1    ESP         0.0076
    108 H           3.4305   -1.2284    1.3307 H     1    ESP         0.0075
    109 H           3.4305    1.2533   -1.2879 H     1    ESP         0.0071
    110 H           3.4305   -1.2284   -1.2879 H     1    ESP         0.0071
    111 H           3.5857    0.4603   -1.6205 H     1    ESP         0.0029
    112 H           3.3583    0.8541   -1.6205 H     1    ESP         0.0009
    113 H           3.0100    1.1464   -1.6205 H     1    ESP        -0.0017
    114 H           1.0460    0.0124   -1.6205 H     1    ESP        -0.0131
    115 H           3.0100   -1.1215   -1.6205 H     1    ESP        -0.0018
    116 H           3.3583   -0.8292   -1.6205 H     1    ESP         0.0008
    117 H           3.5857   -0.4354   -1.6205 H     1    ESP         0.0028
    118 H           3.2665    0.0124   -1.8706 H     1    ESP        -0.0034
    119 H           3.1444    0.4680   -1.8706 H     1    ESP        -0.0045
    120 H           2.8109    0.8015   -1.8706 H     1    ESP        -0.0075
    121 H           1.4441    0.0124   -1.8706 H     1    ESP        -0.0173
    122 H           2.8109   -0.7766   -1.8706 H     1    ESP        -0.0076
    123 H           3.1444   -0.4431   -1.8706 H     1    ESP        -0.0045
    124 H           2.8226    0.0124   -2.0260 H     1    ESP        -0.0091
    125 H           2.5889    0.4171   -2.0260 H     1    ESP        -0.0114
    126 H           2.1217    0.4171   -2.0260 H     1    ESP        -0.0156
    127 H           1.8880    0.0124   -2.0260 H     1    ESP        -0.0170
    128 H           2.1217   -0.3922   -2.0260 H     1    ESP        -0.0156
    129 H           2.5889   -0.3922   -2.0260 H     1    ESP        -0.0114
    130 H           2.3553    0.0124   -2.0786 H     1    ESP        -0.0139
    131 H           1.6483    1.2164    2.1157 H     1    ESP        -0.0134
    132 H           2.1156    1.2164    2.0630 H     1    ESP        -0.0109
    133 H           1.8820    1.6211    2.0630 H     1    ESP        -0.0085
    134 H           1.4147    1.6211    2.0630 H     1    ESP        -0.0110
    135 H           1.1810    1.2164    2.0630 H     1    ESP        -0.0153
    136 H           1.4147    0.8118    2.0630 H     1    ESP        -0.0167
    137 H           1.8820    0.8118    2.0630 H     1    ESP        -0.0153
    138 H           2.5595    1.2164    1.9077 H     1    ESP        -0.0070
    139 H           2.4374    1.6720    1.9077 H     1    ESP        -0.0037
    140 H           2.1039    2.0055    1.9077 H     1    ESP        -0.0026
    141 H           1.6483    2.1276    1.9077 H     1    ESP        -0.0039
    142 H           1.1927    2.0055    1.9077 H     1    ESP        -0.0074
    143 H           1.1927    0.4274    1.9077 H     1    ESP        -0.0172
    144 H           2.9576    1.2164    1.6575 H     1    ESP        -0.0013
    145 H           2.8787    1.6643    1.6575 H     1    ESP         0.0016
    146 H           2.6513    2.0581    1.6575 H     1    ESP         0.0038
    147 H           1.8757    2.5059    1.6575 H     1    ESP         0.0036
    148 H           1.4209    2.5059    1.6575 H     1    ESP         0.0013
    149 H           0.9936    2.3504    1.6575 H     1    ESP        -0.0018
    150 H           0.9936    0.0825    1.6575 H     1    ESP        -0.0135
    151 H           3.2236    1.6790    1.3250 H     1    ESP         0.0084
    152 H           0.9663    2.7099    1.3250 H     1    ESP         0.0066
    153 H           0.9774    2.9855    0.9268 H     1    ESP         0.0152
    154 H           0.9774    2.9855   -0.8955 H     1    ESP         0.0155
    155 H           3.2236    1.6790   -1.2937 H     1    ESP         0.0078
    156 H           0.9663    2.7099   -1.2937 H     1    ESP         0.0068
    157 H           2.9576    1.2164   -1.6262 H     1    ESP        -0.0018
    158 H           2.8787    1.6643   -1.6262 H     1    ESP         0.0011
    159 H           2.6513    2.0581   -1.6262 H     1    ESP         0.0034
    160 H           1.8757    2.5059   -1.6262 H     1    ESP         0.0034
    161 H           1.4209    2.5059   -1.6262 H     1    ESP         0.0012
    162 H           0.9936    2.3504   -1.6262 H     1    ESP        -0.0017
    163 H           0.9936    0.0825   -1.6262 H     1    ESP        -0.0131
    164 H           2.5595    1.2164   -1.8764 H     1    ESP        -0.0074
    165 H           2.4374    1.6720   -1.8764 H     1    ESP        -0.0040
    166 H           2.1039    2.0055   -1.8764 H     1    ESP        -0.0028
    167 H           1.6483    2.1276   -1.8764 H     1    ESP        -0.0041
    168 H           1.1927    2.0055   -1.8764 H     1    ESP        -0.0075
    169 H           1.1927    0.4274   -1.8764 H     1    ESP        -0.0171
    170 H           2.1156    1.2164   -2.0317 H     1    ESP        -0.0111
    171 H           1.8820    1.6211   -2.0317 H     1    ESP        -0.0087
    172 H           1.4147    1.6211   -2.0317 H     1    ESP        -0.0112
    173 H           1.1810    1.2164   -2.0317 H     1    ESP        -0.0154
    174 H           1.4147    0.8118   -2.0317 H     1    ESP        -0.0168
    175 H           1.8820    0.8118   -2.0317 H     1    ESP        -0.0154
    176 H           1.6483    1.2164   -2.0843 H     1    ESP        -0.0136
    177 H           0.2525    1.2177    2.1030 H     1    ESP        -0.0141
    178 H           0.7198    1.2177    2.0504 H     1    ESP        -0.0155
    179 H           0.4861    1.6224    2.0504 H     1    ESP        -0.0118
    180 H           0.0188    1.6224    2.0504 H     1    ESP        -0.0101
    181 H          -0.2148    1.2177    2.0504 H     1    ESP        -0.0123
    182 H           0.0188    0.8130    2.0504 H     1    ESP        -0.0153
    183 H           0.4861    0.8130    2.0504 H     1    ESP        -0.0166
    184 H           0.7081    2.0068    1.8951 H     1    ESP        -0.0078
    185 H           0.2525    2.1288    1.8951 H     1    ESP        -0.0053
    186 H          -0.2031    2.0068    1.8951 H     1    ESP        -0.0051
    187 H          -0.5366    1.6733    1.8951 H     1    ESP        -0.0070
    188 H          -0.6587    1.2177    1.8951 H     1    ESP        -0.0099
    189 H           0.7081    0.4286    1.8951 H     1    ESP        -0.0167
    190 H           0.9071    2.3516    1.6449 H     1    ESP        -0.0017
    191 H           0.4798    2.5071    1.6449 H     1    ESP         0.0004
    192 H           0.0251    2.5071    1.6449 H     1    ESP         0.0017
    193 H          -0.7505    2.0593    1.6449 H     1    ESP        -0.0009
    194 H          -0.9779    1.6655    1.6449 H     1    ESP        -0.0044
    195 H           0.9071    0.0838    1.6449 H     1    ESP        -0.0130
    196 H           0.9345    2.7111    1.3124 H     1    ESP         0.0069
    197 H           0.4861    2.8428    1.3124 H     1    ESP         0.0082
    198 H           0.9234    2.9868    0.9142 H     1    ESP         0.0155
    199 H           0.9234    2.9868   -0.9081 H     1    ESP         0.0152
    200 H           0.9345    2.7111   -1.3063 H     1    ESP         0.0066
    201 H           0.9071    2.3516   -1.6388 H     1    ESP        -0.0019
    202 H           0.4798    2.5071   -1.6388 H     1    ESP         0.0004
    203 H           0.0251    2.5071   -1.6388 H     1    ESP         0.0019
    204 H          -0.7505    2.0593   -1.6388 H     1    ESP        -0.0006
    205 H          -0.9779    1.6655   -1.6388 H     1    ESP        -0.0042
    206 H           0.9071    0.0838   -1.6388 H     1    ESP        -0.0132
    207 H           0.7081    2.0068   -1.8890 H     1    ESP        -0.0078
    208 H           0.2525    2.1288   -1.8890 H     1    ESP        -0.0052
    209 H          -0.2031    2.0068   -1.8890 H     1    ESP        -0.0049
    210 H          -0.5366    1.6733   -1.8890 H     1    ESP        -0.0069
    211 H          -0.6587    1.2177   -1.8890 H     1    ESP        -0.0096
    212 H           0.7081    0.4286   -1.8890 H     1    ESP        -0.0167
    213 H           0.7198    1.2177   -2.0443 H     1    ESP        -0.0155
    214 H           0.4861    1.6224   -2.0443 H     1    ESP        -0.0117
    215 H           0.0188    1.6224   -2.0443 H     1    ESP        -0.0100
    216 H          -0.2148    1.2177   -2.0443 H     1    ESP        -0.0121
    217 H           0.0188    0.8130   -2.0443 H     1    ESP        -0.0151
    218 H           0.4861    0.8130   -2.0443 H     1    ESP        -0.0165
    219 H           0.2525    1.2177   -2.0970 H     1    ESP        -0.0140
    220 H          -0.4236   -0.0022    2.0964 H     1    ESP        -0.0142
    221 H           0.0437   -0.0022    2.0437 H     1    ESP        -0.0160
    222 H          -0.1900    0.4024    2.0437 H     1    ESP        -0.0151
    223 H          -0.6573    0.4024    2.0437 H     1    ESP        -0.0130
    224 H          -0.8909   -0.0022    2.0437 H     1    ESP        -0.0124
    225 H          -0.6573   -0.4069    2.0437 H     1    ESP        -0.0129
    226 H          -0.1900   -0.4069    2.0437 H     1    ESP        -0.0151
    227 H           0.4875   -0.0022    1.8884 H     1    ESP        -0.0161
    228 H          -0.8792    0.7868    1.8884 H     1    ESP        -0.0107
    229 H          -0.8792   -0.7913    1.8884 H     1    ESP        -0.0107
    230 H           0.8857   -0.0022    1.6382 H     1    ESP        -0.0128
    231 H           0.8857   -0.0022   -1.6455 H     1    ESP        -0.0133
    232 H           0.4875   -0.0022   -1.8957 H     1    ESP        -0.0162
    233 H          -0.8792    0.7868   -1.8957 H     1    ESP        -0.0105
    234 H          -0.8792   -0.7913   -1.8957 H     1    ESP        -0.0105
    235 H           0.0437   -0.0022   -2.0510 H     1    ESP        -0.0159
    236 H          -0.1900    0.4024   -2.0510 H     1    ESP        -0.0150
    237 H          -0.6573    0.4024   -2.0510 H     1    ESP        -0.0128
    238 H          -0.8909   -0.0022   -2.0510 H     1    ESP        -0.0123
    239 H          -0.6573   -0.4069   -2.0510 H     1    ESP        -0.0128
    240 H          -0.1900   -0.4069   -2.0510 H     1    ESP        -0.0149
    241 H          -0.4236   -0.0022   -2.1036 H     1    ESP        -0.0140
    242 H          -2.1848   -0.0115    2.3599 H     1    ESP        -0.0186
    243 H          -1.7204   -0.0115    2.3142 H     1    ESP        -0.0165
    244 H          -1.9526    0.3906    2.3142 H     1    ESP        -0.0175
    245 H          -2.4169    0.3906    2.3142 H     1    ESP        -0.0190
    246 H          -2.6491   -0.0115    2.3142 H     1    ESP        -0.0194
    247 H          -2.4169   -0.4137    2.3142 H     1    ESP        -0.0190
    248 H          -1.9526   -0.4137    2.3142 H     1    ESP        -0.0175
    249 H          -1.2740   -0.0115    2.1787 H     1    ESP        -0.0140
    250 H          -1.3960    0.4438    2.1787 H     1    ESP        -0.0143
    251 H          -1.7294    0.7772    2.1787 H     1    ESP        -0.0155
    252 H          -2.1848    0.8992    2.1787 H     1    ESP        -0.0175
    253 H          -2.6402    0.7772    2.1787 H     1    ESP        -0.0188
    254 H          -2.9735    0.4438    2.1787 H     1    ESP        -0.0189
    255 H          -3.0955   -0.0115    2.1787 H     1    ESP        -0.0186
    256 H          -2.9735   -0.4669    2.1787 H     1    ESP        -0.0189
    257 H          -2.6402   -0.8003    2.1787 H     1    ESP        -0.0188
    258 H          -2.1848   -0.9223    2.1787 H     1    ESP        -0.0176
    259 H          -1.7294   -0.8003    2.1787 H     1    ESP        -0.0156
    260 H          -1.3960   -0.4669    2.1787 H     1    ESP        -0.0143
    261 H          -1.1719    0.8384    1.9588 H     1    ESP        -0.0115
    262 H          -1.5236    1.1336    1.9588 H     1    ESP        -0.0126
    263 H          -1.9552    1.2906    1.9588 H     1    ESP        -0.0149
    264 H          -2.4144    1.2906    1.9588 H     1    ESP        -0.0171
    265 H          -2.8459    1.1336    1.9588 H     1    ESP        -0.0181
    266 H          -3.1977    0.8384    1.9588 H     1    ESP        -0.0177
    267 H          -3.4273    0.4407    1.9588 H     1    ESP        -0.0168
    268 H          -3.5070   -0.0115    1.9588 H     1    ESP        -0.0164
    269 H          -3.4273   -0.4638    1.9588 H     1    ESP        -0.0168
    270 H          -3.1977   -0.8615    1.9588 H     1    ESP        -0.0177
    271 H          -2.8459   -1.1567    1.9588 H     1    ESP        -0.0181
    272 H          -2.4144   -1.3137    1.9588 H     1    ESP        -0.0172
    273 H          -1.9552   -1.3137    1.9588 H     1    ESP        -0.0150
    274 H          -1.5236   -1.1567    1.9588 H     1    ESP        -0.0126
    275 H          -1.1719   -0.8615    1.9588 H     1    ESP        -0.0116
    276 H          -1.0361    1.2184    1.6628 H     1    ESP        -0.0068
    277 H          -1.4105    1.4827    1.6628 H     1    ESP        -0.0083
    278 H          -1.8424    1.6362    1.6628 H     1    ESP        -0.0115
    279 H          -2.2996    1.6674    1.6628 H     1    ESP        -0.0148
    280 H          -2.7483    1.5742    1.6628 H     1    ESP        -0.0168
    281 H          -3.1553    1.3633    1.6628 H     1    ESP        -0.0169
    282 H          -3.4902    1.0505    1.6628 H     1    ESP        -0.0158
    283 H          -3.7283    0.6589    1.6628 H     1    ESP        -0.0142
    284 H          -3.8520    0.2176    1.6628 H     1    ESP        -0.0132
    285 H          -3.8520   -0.2407    1.6628 H     1    ESP        -0.0131
    286 H          -3.7283   -0.6820    1.6628 H     1    ESP        -0.0142
    287 H          -3.4902   -1.0736    1.6628 H     1    ESP        -0.0157
    288 H          -3.1553   -1.3864    1.6628 H     1    ESP        -0.0169
    289 H          -2.7483   -1.5973    1.6628 H     1    ESP        -0.0168
    290 H          -2.2996   -1.6905    1.6628 H     1    ESP        -0.0149
    291 H          -1.8424   -1.6593    1.6628 H     1    ESP        -0.0116
    292 H          -1.4105   -1.5058    1.6628 H     1    ESP        -0.0084
    293 H          -1.0361   -1.2415    1.6628 H     1    ESP        -0.0069
    294 H          -1.4010    1.8055    1.3021 H     1    ESP        -0.0019
    295 H          -1.8411    1.9373    1.3021 H     1    ESP        -0.0075
    296 H          -2.2998    1.9640    1.3021 H     1    ESP        -0.0124
    297 H          -2.7523    1.8842    1.3021 H     1    ESP        -0.0153
    298 H          -3.1742    1.7022    1.3021 H     1    ESP        -0.0159
    299 H          -3.5428    1.4279    1.3021 H     1    ESP        -0.0147
    300 H          -3.8381    1.0759    1.3021 H     1    ESP        -0.0127
    301 H          -4.0443    0.6653    1.3021 H     1    ESP        -0.0107
    302 H          -4.1503    0.2182    1.3021 H     1    ESP        -0.0095
    303 H          -4.1503   -0.2413    1.3021 H     1    ESP        -0.0094
    304 H          -4.0443   -0.6884    1.3021 H     1    ESP        -0.0106
    305 H          -3.8381   -1.0990    1.3021 H     1    ESP        -0.0126
    306 H          -3.5428   -1.4509    1.3021 H     1    ESP        -0.0147
    307 H          -3.1742   -1.7253    1.3021 H     1    ESP        -0.0159
    308 H          -2.7523   -1.9073    1.3021 H     1    ESP        -0.0153
    309 H          -2.2998   -1.9871    1.3021 H     1    ESP        -0.0126
    310 H          -1.8411   -1.9604    1.3021 H     1    ESP        -0.0078
    311 H          -1.4010   -1.8286    1.3021 H     1    ESP        -0.0021
    312 H          -1.9549    2.1752    0.8907 H     1    ESP        -0.0046
    313 H          -2.4146    2.1752    0.8907 H     1    ESP        -0.0111
    314 H          -2.8642    2.0797    0.8907 H     1    ESP        -0.0143
    315 H          -3.2842    1.8927    0.8907 H     1    ESP        -0.0148
    316 H          -3.6561    1.6225    0.8907 H     1    ESP        -0.0134
    317 H          -3.9637    1.2809    0.8907 H     1    ESP        -0.0110
    318 H          -4.1935    0.8828    0.8907 H     1    ESP        -0.0085
    319 H          -4.3355    0.4456    0.8907 H     1    ESP        -0.0066
    320 H          -4.3836   -0.0115    0.8907 H     1    ESP        -0.0059
    321 H          -4.3355   -0.4687    0.8907 H     1    ESP        -0.0065
    322 H          -4.1935   -0.9059    0.8907 H     1    ESP        -0.0084
    323 H          -3.9637   -1.3040    0.8907 H     1    ESP        -0.0109
    324 H          -3.6561   -1.6456    0.8907 H     1    ESP        -0.0133
    325 H          -3.2842   -1.9158    0.8907 H     1    ESP        -0.0148
    326 H          -2.8642   -2.1028    0.8907 H     1    ESP        -0.0144
    327 H          -2.4146   -2.1983    0.8907 H     1    ESP        -0.0113
    328 H          -1.9549   -2.1983    0.8907 H     1    ESP        -0.0050
    329 H          -2.1848    2.3227    0.4442 H     1    ESP        -0.0056
    330 H          -2.6402    2.2779    0.4442 H     1    ESP        -0.0117
    331 H          -3.0780    2.1450    0.4442 H     1    ESP        -0.0140
    332 H          -3.4816    1.9293    0.4442 H     1    ESP        -0.0137
    333 H          -3.8353    1.6390    0.4442 H     1    ESP        -0.0117
    334 H          -4.1256    1.2853    0.4442 H     1    ESP        -0.0090
    335 H          -4.3413    0.8817    0.4442 H     1    ESP        -0.0062
    336 H          -4.4742    0.4438    0.4442 H     1    ESP        -0.0042
    337 H          -4.5190   -0.0115    0.4442 H     1    ESP        -0.0035
    338 H          -4.4742   -0.4669    0.4442 H     1    ESP        -0.0042
    339 H          -4.3413   -0.9048    0.4442 H     1    ESP        -0.0061
    340 H          -4.1256   -1.3084    0.4442 H     1    ESP        -0.0088
    341 H          -3.8353   -1.6621    0.4442 H     1    ESP        -0.0116
    342 H          -3.4816   -1.9524    0.4442 H     1    ESP        -0.0137
    343 H          -3.0780   -2.1681    0.4442 H     1    ESP        -0.0140
    344 H          -2.6402   -2.3010    0.4442 H     1    ESP        -0.0119
    345 H          -2.1848   -2.3458    0.4442 H     1    ESP        -0.0061
    346 H          -2.0715    2.3658   -0.0201 H     1    ESP        -0.0020
    347 H          -2.5235    2.3442   -0.0201 H     1    ESP        -0.0099
    348 H          -2.9632    2.2376   -0.0201 H     1    ESP        -0.0133
    349 H          -3.3748    2.0496   -0.0201 H     1    ESP        -0.0138
    350 H          -3.7433    1.7871   -0.0201 H     1    ESP        -0.0122
    351 H          -4.0556    1.4597   -0.0201 H     1    ESP        -0.0096
    352 H          -4.3002    1.0790   -0.0201 H     1    ESP        -0.0066
    353 H          -4.4684    0.6590   -0.0201 H     1    ESP        -0.0042
    354 H          -4.5540    0.2147   -0.0201 H     1    ESP        -0.0028
    355 H          -4.5540   -0.2378   -0.0201 H     1    ESP        -0.0028
    356 H          -4.4684   -0.6821   -0.0201 H     1    ESP        -0.0041
    357 H          -4.3002   -1.1021   -0.0201 H     1    ESP        -0.0065
    358 H          -4.0556   -1.4828   -0.0201 H     1    ESP        -0.0094
    359 H          -3.7433   -1.8102   -0.0201 H     1    ESP        -0.0121
    360 H          -3.3748   -2.0727   -0.0201 H     1    ESP        -0.0137
    361 H          -2.9632   -2.2606   -0.0201 H     1    ESP        -0.0134
    362 H          -2.5235   -2.3673   -0.0201 H     1    ESP        -0.0102
    363 H          -2.0715   -2.3889   -0.0201 H     1    ESP        -0.0026
    364 H          -2.1848    2.3227   -0.4844 H     1    ESP        -0.0058
    365 H          -2.6402    2.2779   -0.4844 H     1    ESP        -0.0117
    366 H          -3.0780    2.1450   -0.4844 H     1    ESP        -0.0140
    367 H          -3.4816    1.9293   -0.4844 H     1    ESP        -0.0137
    368 H          -3.8353    1.6390   -0.4844 H     1    ESP        -0.0117
    369 H          -4.1256    1.2853   -0.4844 H     1    ESP        -0.0088
    370 H          -4.3413    0.8817   -0.4844 H     1    ESP        -0.0061
    371 H          -4.4742    0.4438   -0.4844 H     1    ESP        -0.0041
    372 H          -4.5190   -0.0115   -0.4844 H     1    ESP        -0.0034
    373 H          -4.4742   -0.4669   -0.4844 H     1    ESP        -0.0040
    374 H          -4.3413   -0.9048   -0.4844 H     1    ESP        -0.0060
    375 H          -4.1256   -1.3084   -0.4844 H     1    ESP        -0.0087
    376 H          -3.8353   -1.6621   -0.4844 H     1    ESP        -0.0115
    377 H          -3.4816   -1.9524   -0.4844 H     1    ESP        -0.0136
    378 H          -3.0780   -2.1681   -0.4844 H     1    ESP        -0.0140
    379 H          -2.6402   -2.3010   -0.4844 H     1    ESP        -0.0119
    380 H          -2.1848   -2.3458   -0.4844 H     1    ESP        -0.0062
    381 H          -1.9549    2.1752   -0.9309 H     1    ESP        -0.0050
    382 H          -2.4146    2.1752   -0.9309 H     1    ESP        -0.0112
    383 H          -2.8642    2.0797   -0.9309 H     1    ESP        -0.0143
    384 H          -3.2842    1.8927   -0.9309 H     1    ESP        -0.0147
    385 H          -3.6561    1.6225   -0.9309 H     1    ESP        -0.0133
    386 H          -3.9637    1.2809   -0.9309 H     1    ESP        -0.0108
    387 H          -4.1935    0.8828   -0.9309 H     1    ESP        -0.0082
    388 H          -4.3355    0.4456   -0.9309 H     1    ESP        -0.0063
    389 H          -4.3836   -0.0115   -0.9309 H     1    ESP        -0.0056
    390 H          -4.3355   -0.4687   -0.9309 H     1    ESP        -0.0063
    391 H          -4.1935   -0.9059   -0.9309 H     1    ESP        -0.0081
    392 H          -3.9637   -1.3040   -0.9309 H     1    ESP        -0.0107
    393 H          -3.6561   -1.6456   -0.9309 H     1    ESP        -0.0132
    394 H          -3.2842   -1.9158   -0.9309 H     1    ESP        -0.0147
    395 H          -2.8642   -2.1028   -0.9309 H     1    ESP        -0.0144
    396 H          -2.4146   -2.1983   -0.9309 H     1    ESP        -0.0114
    397 H          -1.9549   -2.1983   -0.9309 H     1    ESP        -0.0054
    398 H          -1.4010    1.8055   -1.3424 H     1    ESP        -0.0025
    399 H          -1.8411    1.9373   -1.3424 H     1    ESP        -0.0079
    400 H          -2.2998    1.9640   -1.3424 H     1    ESP        -0.0126
    401 H          -2.7523    1.8842   -1.3424 H     1    ESP        -0.0153
    402 H          -3.1742    1.7022   -1.3424 H     1    ESP        -0.0158
    403 H          -3.5428    1.4279   -1.3424 H     1    ESP        -0.0146
    404 H          -3.8381    1.0759   -1.3424 H     1    ESP        -0.0125
    405 H          -4.0443    0.6653   -1.3424 H     1    ESP        -0.0104
    406 H          -4.1503    0.2182   -1.3424 H     1    ESP        -0.0091
    407 H          -4.1503   -0.2413   -1.3424 H     1    ESP        -0.0091
    408 H          -4.0443   -0.6884   -1.3424 H     1    ESP        -0.0103
    409 H          -3.8381   -1.0990   -1.3424 H     1    ESP        -0.0123
    410 H          -3.5428   -1.4509   -1.3424 H     1    ESP        -0.0145
    411 H          -3.1742   -1.7253   -1.3424 H     1    ESP        -0.0158
    412 H          -2.7523   -1.9073   -1.3424 H     1    ESP        -0.0154
    413 H          -2.2998   -1.9871   -1.3424 H     1    ESP        -0.0128
    414 H          -1.8411   -1.9604   -1.3424 H     1    ESP        -0.0081
    415 H          -1.4010   -1.8286   -1.3424 H     1    ESP        -0.0027
    416 H          -1.0361    1.2184   -1.7030 H     1    ESP        -0.0073
    417 H          -1.4105    1.4827   -1.7030 H     1    ESP        -0.0087
    418 H          -1.8424    1.6362   -1.7030 H     1    ESP        -0.0118
    419 H          -2.2996    1.6674   -1.7030 H     1    ESP        -0.0150
    420 H          -2.7483    1.5742   -1.7030 H     1    ESP        -0.0168
    421 H          -3.1553    1.3633   -1.7030 H     1    ESP        -0.0168
    422 H          -3.4902    1.0505   -1.7030 H     1    ESP        -0.0156
    423 H          -3.7283    0.6589   -1.7030 H     1    ESP        -0.0139
    424 H          -3.8520    0.2176   -1.7030 H     1    ESP        -0.0128
    425 H          -3.8520   -0.2407   -1.7030 H     1    ESP        -0.0128
    426 H          -3.7283   -0.6820   -1.7030 H     1    ESP        -0.0139
    427 H          -3.4902   -1.0736   -1.7030 H     1    ESP        -0.0155
    428 H          -3.1553   -1.3864   -1.7030 H     1    ESP        -0.0168
    429 H          -2.7483   -1.5973   -1.7030 H     1    ESP        -0.0168
    430 H          -2.2996   -1.6905   -1.7030 H     1    ESP        -0.0151
    431 H          -1.8424   -1.6593   -1.7030 H     1    ESP        -0.0119
    432 H          -1.4105   -1.5058   -1.7030 H     1    ESP        -0.0088
    433 H          -1.0361   -1.2415   -1.7030 H     1    ESP        -0.0073
    434 H          -0.9422    0.4407   -1.9990 H     1    ESP        -0.0117
    435 H          -1.1719    0.8384   -1.9990 H     1    ESP        -0.0118
    436 H          -1.5236    1.1336   -1.9990 H     1    ESP        -0.0129
    437 H          -1.9552    1.2906   -1.9990 H     1    ESP        -0.0151
    438 H          -2.4144    1.2906   -1.9990 H     1    ESP        -0.0173
    439 H          -2.8459    1.1336   -1.9990 H     1    ESP        -0.0181
    440 H          -3.1977    0.8384   -1.9990 H     1    ESP        -0.0176
    441 H          -3.4273    0.4407   -1.9990 H     1    ESP        -0.0166
    442 H          -3.5070   -0.0115   -1.9990 H     1    ESP        -0.0161
    443 H          -3.4273   -0.4638   -1.9990 H     1    ESP        -0.0165
    444 H          -3.1977   -0.8615   -1.9990 H     1    ESP        -0.0175
    445 H          -2.8459   -1.1567   -1.9990 H     1    ESP        -0.0181
    446 H          -2.4144   -1.3137   -1.9990 H     1    ESP        -0.0173
    447 H          -1.9552   -1.3137   -1.9990 H     1    ESP        -0.0152
    448 H          -1.5236   -1.1567   -1.9990 H     1    ESP        -0.0129
    449 H          -1.1719   -0.8615   -1.9990 H     1    ESP        -0.0118
    450 H          -0.9422   -0.4638   -1.9990 H     1    ESP        -0.0117
    451 H          -1.2740   -0.0115   -2.2190 H     1    ESP        -0.0142
    452 H          -1.3960    0.4438   -2.2190 H     1    ESP        -0.0145
    453 H          -1.7294    0.7772   -2.2190 H     1    ESP        -0.0158
    454 H          -2.1848    0.8992   -2.2190 H     1    ESP        -0.0177
    455 H          -2.6402    0.7772   -2.2190 H     1    ESP        -0.0188
    456 H          -2.9735    0.4438   -2.2190 H     1    ESP        -0.0188
    457 H          -3.0955   -0.0115   -2.2190 H     1    ESP        -0.0185
    458 H          -2.9735   -0.4669   -2.2190 H     1    ESP        -0.0187
    459 H          -2.6402   -0.8003   -2.2190 H     1    ESP        -0.0188
    460 H          -2.1848   -0.9223   -2.2190 H     1    ESP        -0.0177
    461 H          -1.7294   -0.8003   -2.2190 H     1    ESP        -0.0158
    462 H          -1.3960   -0.4669   -2.2190 H     1    ESP        -0.0146
    463 H          -1.7204   -0.0115   -2.3544 H     1    ESP        -0.0168
    464 H          -1.9526    0.3906   -2.3544 H     1    ESP        -0.0177
    465 H          -2.4169    0.3906   -2.3544 H     1    ESP        -0.0191
    466 H          -2.6491   -0.0115   -2.3544 H     1    ESP        -0.0194
    467 H          -2.4169   -0.4137   -2.3544 H     1    ESP        -0.0191
    468 H          -1.9526   -0.4137   -2.3544 H     1    ESP        -0.0177
    469 H          -2.1848   -0.0115   -2.4001 H     1    ESP        -0.0188
    470 H          -0.7573   -2.1503    1.6084 H     1    ESP         0.0003
    471 H          -0.5207   -2.5602    1.6084 H     1    ESP         0.0036
    472 H          -0.0474   -2.5602    1.6084 H     1    ESP         0.0030
    473 H          -1.1923   -2.1503    1.4098 H     1    ESP         0.0010
    474 H          -1.0706   -2.6045    1.4098 H     1    ESP         0.0048
    475 H          -0.7382   -2.9369    1.4098 H     1    ESP         0.0077
    476 H          -0.2840   -3.0586    1.4098 H     1    ESP         0.0088
    477 H           0.1701   -2.9369    1.4098 H     1    ESP         0.0078
    478 H          -1.5321   -2.3836    1.0967 H     1    ESP         0.0025
    479 H          -1.3635   -2.8187    1.0967 H     1    ESP         0.0070
    480 H          -1.0492   -3.1635    1.0967 H     1    ESP         0.0103
    481 H          -0.6315   -3.3715    1.0967 H     1    ESP         0.0121
    482 H          -0.1669   -3.4146    1.0967 H     1    ESP         0.0128
    483 H           0.2819   -3.2869    1.0967 H     1    ESP         0.0127
    484 H           0.6543   -3.0057    1.0967 H     1    ESP         0.0121
    485 H          -1.7374   -2.6226    0.6944 H     1    ESP         0.0044
    486 H          -1.5204   -3.0486    0.6944 H     1    ESP         0.0092
    487 H          -1.1823   -3.3866    0.6944 H     1    ESP         0.0125
    488 H          -0.7563   -3.6037    0.6944 H     1    ESP         0.0145
    489 H          -0.2840   -3.6785    0.6944 H     1    ESP         0.0155
    490 H           0.1882   -3.6037    0.6944 H     1    ESP         0.0161
    491 H           0.6142   -3.3866    0.6944 H     1    ESP         0.0169
    492 H          -1.8796   -2.6188    0.2356 H     1    ESP         0.0038
    493 H          -1.6830   -3.0494    0.2356 H     1    ESP         0.0090
    494 H          -1.3730   -3.4071    0.2356 H     1    ESP         0.0127
    495 H          -0.9748   -3.6630    0.2356 H     1    ESP         0.0151
    496 H          -0.5207   -3.7963    0.2356 H     1    ESP         0.0165
    497 H          -0.0474   -3.7963    0.2356 H     1    ESP         0.0173
    498 H           0.4068   -3.6630    0.2356 H     1    ESP         0.0182
    499 H           0.8049   -3.4071    0.2356 H     1    ESP         0.0205
    500 H          -1.8796   -2.6188   -0.2426 H     1    ESP         0.0037
    501 H          -1.6830   -3.0494   -0.2426 H     1    ESP         0.0090
    502 H          -1.3730   -3.4071   -0.2426 H     1    ESP         0.0127
    503 H          -0.9748   -3.6630   -0.2426 H     1    ESP         0.0151
    504 H          -0.5207   -3.7963   -0.2426 H     1    ESP         0.0165
    505 H          -0.0474   -3.7963   -0.2426 H     1    ESP         0.0173
    506 H           0.4068   -3.6630   -0.2426 H     1    ESP         0.0182
    507 H           0.8049   -3.4071   -0.2426 H     1    ESP         0.0204
    508 H          -1.7374   -2.6226   -0.7014 H     1    ESP         0.0043
    509 H          -1.5204   -3.0486   -0.7014 H     1    ESP         0.0092
    510 H          -1.1823   -3.3866   -0.7014 H     1    ESP         0.0125
    511 H          -0.7563   -3.6037   -0.7014 H     1    ESP         0.0145
    512 H          -0.2840   -3.6785   -0.7014 H     1    ESP         0.0155
    513 H           0.1882   -3.6037   -0.7014 H     1    ESP         0.0160
    514 H           0.6142   -3.3866   -0.7014 H     1    ESP         0.0168
    515 H          -1.5321   -2.3836   -1.1037 H     1    ESP         0.0025
    516 H          -1.3635   -2.8187   -1.1037 H     1    ESP         0.0070
    517 H          -1.0492   -3.1635   -1.1037 H     1    ESP         0.0103
    518 H          -0.6315   -3.3715   -1.1037 H     1    ESP         0.0122
    519 H          -0.1669   -3.4146   -1.1037 H     1    ESP         0.0128
    520 H           0.2819   -3.2869   -1.1037 H     1    ESP         0.0126
    521 H           0.6543   -3.0057   -1.1037 H     1    ESP         0.0119
    522 H          -1.1923   -2.1503   -1.4168 H     1    ESP         0.0010
    523 H          -1.0706   -2.6045   -1.4168 H     1    ESP         0.0048
    524 H          -0.7382   -2.9369   -1.4168 H     1    ESP         0.0078
    525 H          -0.2840   -3.0586   -1.4168 H     1    ESP         0.0088
    526 H           0.1701   -2.9369   -1.4168 H     1    ESP         0.0078
    527 H          -0.7573   -2.1503   -1.6155 H     1    ESP         0.0004
    528 H          -0.5207   -2.5602   -1.6155 H     1    ESP         0.0036
    529 H          -0.0474   -2.5602   -1.6155 H     1    ESP         0.0030
    530 H           2.6771   -2.1402    1.6308 H     1    ESP         0.0051
    531 H           1.9671   -2.5501    1.6308 H     1    ESP         0.0049
    532 H           2.4404   -2.5501    1.6308 H     1    ESP         0.0072
    533 H           3.1120   -2.1402    1.4322 H     1    ESP         0.0094
    534 H           1.7496   -2.9268    1.4322 H     1    ESP         0.0090
    535 H           2.2037   -3.0485    1.4322 H     1    ESP         0.0112
    536 H           2.6579   -2.9268    1.4322 H     1    ESP         0.0120
    537 H           2.9903   -2.5944    1.4322 H     1    ESP         0.0114
    538 H           3.4734   -2.1402    1.1190 H     1    ESP         0.0137
    539 H           3.3877   -1.6816    1.1190 H     1    ESP         0.0124
    540 H           1.4386   -3.1535    1.1190 H     1    ESP         0.0128
    541 H           1.8563   -3.3614    1.1190 H     1    ESP         0.0141
    542 H           2.3209   -3.4045    1.1190 H     1    ESP         0.0152
    543 H           2.7697   -3.2768    1.1190 H     1    ESP         0.0157
    544 H           3.1420   -2.9956    1.1190 H     1    ESP         0.0156
    545 H           3.3877   -2.5989    1.1190 H     1    ESP         0.0149
    546 H           3.7319   -2.1402    0.7168 H     1    ESP         0.0173
    547 H           3.6571   -1.6680    0.7168 H     1    ESP         0.0182
    548 H           1.3055   -3.3766    0.7168 H     1    ESP         0.0170
    549 H           1.7315   -3.5936    0.7168 H     1    ESP         0.0170
    550 H           2.2037   -3.6684    0.7168 H     1    ESP         0.0176
    551 H           2.6760   -3.5936    0.7168 H     1    ESP         0.0181
    552 H           3.1020   -3.3766    0.7168 H     1    ESP         0.0182
    553 H           3.4401   -3.0385    0.7168 H     1    ESP         0.0180
    554 H           3.6571   -2.6125    0.7168 H     1    ESP         0.0176
    555 H           3.8666   -2.1402    0.2580 H     1    ESP         0.0193
    556 H           3.7993   -1.6717    0.2580 H     1    ESP         0.0218
    557 H           1.1148   -3.3970    0.2580 H     1    ESP         0.0205
    558 H           1.5129   -3.6529    0.2580 H     1    ESP         0.0187
    559 H           1.9671   -3.7862    0.2580 H     1    ESP         0.0187
    560 H           2.4404   -3.7862    0.2580 H     1    ESP         0.0191
    561 H           2.8945   -3.6529    0.2580 H     1    ESP         0.0194
    562 H           3.2927   -3.3970    0.2580 H     1    ESP         0.0194
    563 H           3.6027   -3.0393    0.2580 H     1    ESP         0.0192
    564 H           3.7993   -2.6087    0.2580 H     1    ESP         0.0190
    565 H           3.8666   -2.1402   -0.2202 H     1    ESP         0.0193
    566 H           3.7993   -1.6717   -0.2202 H     1    ESP         0.0217
    567 H           1.1148   -3.3970   -0.2202 H     1    ESP         0.0206
    568 H           1.5129   -3.6529   -0.2202 H     1    ESP         0.0188
    569 H           1.9671   -3.7862   -0.2202 H     1    ESP         0.0187
    570 H           2.4404   -3.7862   -0.2202 H     1    ESP         0.0191
    571 H           2.8945   -3.6529   -0.2202 H     1    ESP         0.0194
    572 H           3.2927   -3.3970   -0.2202 H     1    ESP         0.0194
    573 H           3.6027   -3.0393   -0.2202 H     1    ESP         0.0192
    574 H           3.7993   -2.6087   -0.2202 H     1    ESP         0.0189
    575 H           3.7319   -2.1402   -0.6790 H     1    ESP         0.0171
    576 H           3.6571   -1.6680   -0.6790 H     1    ESP         0.0179
    577 H           1.3055   -3.3766   -0.6790 H     1    ESP         0.0172
    578 H           1.7315   -3.5936   -0.6790 H     1    ESP         0.0170
    579 H           2.2037   -3.6684   -0.6790 H     1    ESP         0.0175
    580 H           2.6760   -3.5936   -0.6790 H     1    ESP         0.0180
    581 H           3.1020   -3.3766   -0.6790 H     1    ESP         0.0182
    582 H           3.4401   -3.0385   -0.6790 H     1    ESP         0.0179
    583 H           3.6571   -2.6125   -0.6790 H     1    ESP         0.0174
    584 H           3.4734   -2.1402   -1.0813 H     1    ESP         0.0135
    585 H           3.3877   -1.6816   -1.0813 H     1    ESP         0.0120
    586 H           1.4386   -3.1535   -1.0813 H     1    ESP         0.0130
    587 H           1.8563   -3.3614   -1.0813 H     1    ESP         0.0142
    588 H           2.3209   -3.4045   -1.0813 H     1    ESP         0.0151
    589 H           2.7697   -3.2768   -1.0813 H     1    ESP         0.0156
    590 H           3.1420   -2.9956   -1.0813 H     1    ESP         0.0155
    591 H           3.3877   -2.5989   -1.0813 H     1    ESP         0.0147
    592 H           3.1120   -2.1402   -1.3944 H     1    ESP         0.0092
    593 H           1.7496   -2.9268   -1.3944 H     1    ESP         0.0090
    594 H           2.2037   -3.0485   -1.3944 H     1    ESP         0.0111
    595 H           2.6579   -2.9268   -1.3944 H     1    ESP         0.0119
    596 H           2.9903   -2.5944   -1.3944 H     1    ESP         0.0113
    597 H           2.6771   -2.1402   -1.5931 H     1    ESP         0.0049
    598 H           1.9671   -2.5501   -1.5931 H     1    ESP         0.0048
    599 H           2.4404   -2.5501   -1.5931 H     1    ESP         0.0070
    600 H           3.9147    0.0182    1.6429 H     1    ESP         0.0069
    601 H           3.6780    0.4281    1.6429 H     1    ESP         0.0047
    602 H           3.6780   -0.3917    1.6429 H     1    ESP         0.0047
    603 H           4.3496    0.0182    1.4443 H     1    ESP         0.0119
    604 H           4.2279    0.4723    1.4443 H     1    ESP         0.0112
    605 H           3.8955    0.8048    1.4443 H     1    ESP         0.0091
    606 H           3.8955   -0.7684    1.4443 H     1    ESP         0.0090
    607 H           4.2279   -0.4359    1.4443 H     1    ESP         0.0112
    608 H           4.7110    0.0182    1.1311 H     1    ESP         0.0157
    609 H           4.6253    0.4769    1.1311 H     1    ESP         0.0154
    610 H           4.3796    0.8736    1.1311 H     1    ESP         0.0145
    611 H           4.0073    1.1548    1.1311 H     1    ESP         0.0132
    612 H           4.0073   -1.1184    1.1311 H     1    ESP         0.0132
    613 H           4.3796   -0.8372    1.1311 H     1    ESP         0.0144
    614 H           4.6253   -0.4405    1.1311 H     1    ESP         0.0153
    615 H           4.9695    0.0182    0.7289 H     1    ESP         0.0182
    616 H           4.8947    0.4904    0.7289 H     1    ESP         0.0180
    617 H           4.6777    0.9164    0.7289 H     1    ESP         0.0175
    618 H           4.3396    1.2545    0.7289 H     1    ESP         0.0171
    619 H           3.9136    1.4716    0.7289 H     1    ESP         0.0174
    620 H           3.9136   -1.4352    0.7289 H     1    ESP         0.0174
    621 H           4.3396   -1.2181    0.7289 H     1    ESP         0.0171
    622 H           4.6777   -0.8800    0.7289 H     1    ESP         0.0175
    623 H           4.8947   -0.4540    0.7289 H     1    ESP         0.0180
    624 H           5.1042    0.0182    0.2701 H     1    ESP         0.0194
    625 H           5.0369    0.4867    0.2701 H     1    ESP         0.0192
    626 H           4.8403    0.9172    0.2701 H     1    ESP         0.0189
    627 H           4.5303    1.2749    0.2701 H     1    ESP         0.0188
    628 H           4.1321    1.5308    0.2701 H     1    ESP         0.0196
    629 H           4.1321   -1.4944    0.2701 H     1    ESP         0.0196
    630 H           4.5303   -1.2385    0.2701 H     1    ESP         0.0188
    631 H           4.8403   -0.8808    0.2701 H     1    ESP         0.0189
    632 H           5.0369   -0.4503    0.2701 H     1    ESP         0.0192
    633 H           5.1042    0.0182   -0.2081 H     1    ESP         0.0193
    634 H           5.0369    0.4867   -0.2081 H     1    ESP         0.0192
    635 H           4.8403    0.9172   -0.2081 H     1    ESP         0.0189
    636 H           4.5303    1.2749   -0.2081 H     1    ESP         0.0187
    637 H           4.1321    1.5308   -0.2081 H     1    ESP         0.0195
    638 H           4.1321   -1.4944   -0.2081 H     1    ESP         0.0196
    639 H           4.5303   -1.2385   -0.2081 H     1    ESP         0.0187
    640 H           4.8403   -0.8808   -0.2081 H     1    ESP         0.0189
    641 H           5.0369   -0.4503   -0.2081 H     1    ESP         0.0192
    642 H           4.9695    0.0182   -0.6669 H     1    ESP         0.0180
    643 H           4.8947    0.4904   -0.6669 H     1    ESP         0.0179
    644 H           4.6777    0.9164   -0.6669 H     1    ESP         0.0174
    645 H           4.3396    1.2545   -0.6669 H     1    ESP         0.0170
    646 H           3.9136    1.4716   -0.6669 H     1    ESP         0.0174
    647 H           3.9136   -1.4352   -0.6669 H     1    ESP         0.0174
    648 H           4.3396   -1.2181   -0.6669 H     1    ESP         0.0170
    649 H           4.6777   -0.8800   -0.6669 H     1    ESP         0.0174
    650 H           4.8947   -0.4540   -0.6669 H     1    ESP         0.0178
    651 H           4.7110    0.0182   -1.0692 H     1    ESP         0.0155
    652 H           4.6253    0.4769   -1.0692 H     1    ESP         0.0152
    653 H           4.3796    0.8736   -1.0692 H     1    ESP         0.0143
    654 H           4.0073    1.1548   -1.0692 H     1    ESP         0.0130
    655 H           4.0073   -1.1184   -1.0692 H     1    ESP         0.0130
    656 H           4.3796   -0.8372   -1.0692 H     1    ESP         0.0143
    657 H           4.6253   -0.4405   -1.0692 H     1    ESP         0.0152
    658 H           4.3496    0.0182   -1.3823 H     1    ESP         0.0116
    659 H           4.2279    0.4723   -1.3823 H     1    ESP         0.0109
    660 H           3.8955    0.8048   -1.3823 H     1    ESP         0.0088
    661 H           3.8955   -0.7684   -1.3823 H     1    ESP         0.0088
    662 H           4.2279   -0.4359   -1.3823 H     1    ESP         0.0109
    663 H           3.9147    0.0182   -1.5810 H     1    ESP         0.0066
    664 H           3.6780    0.4281   -1.5810 H     1    ESP         0.0044
    665 H           3.6780   -0.3917   -1.5810 H     1    ESP         0.0043
    666 H           2.6543    2.1634    1.6327 H     1    ESP         0.0051
    667 H           2.4176    2.5733    1.6327 H     1    ESP         0.0072
    668 H           1.9443    2.5733    1.6327 H     1    ESP         0.0049
    669 H           3.0893    2.1634    1.4341 H     1    ESP         0.0094
    670 H           2.9676    2.6176    1.4341 H     1    ESP         0.0114
    671 H           2.6351    2.9500    1.4341 H     1    ESP         0.0121
    672 H           2.1810    3.0717    1.4341 H     1    ESP         0.0112
    673 H           1.7268    2.9500    1.4341 H     1    ESP         0.0091
    674 H           3.4506    2.1634    1.1209 H     1    ESP         0.0137
    675 H           3.3649    2.6221    1.1209 H     1    ESP         0.0149
    676 H           3.1193    3.0188    1.1209 H     1    ESP         0.0156
    677 H           2.7469    3.3000    1.1209 H     1    ESP         0.0157
    678 H           2.2981    3.4277    1.1209 H     1    ESP         0.0152
    679 H           1.8335    3.3846    1.1209 H     1    ESP         0.0142
    680 H           1.4158    3.1766    1.1209 H     1    ESP         0.0129
    681 H           3.7092    2.1634    0.7187 H     1    ESP         0.0173
    682 H           3.6344    2.6357    0.7187 H     1    ESP         0.0175
    683 H           3.4173    3.0617    0.7187 H     1    ESP         0.0180
    684 H           3.0792    3.3997    0.7187 H     1    ESP         0.0182
    685 H           2.6532    3.6168    0.7187 H     1    ESP         0.0181
    686 H           2.1810    3.6916    0.7187 H     1    ESP         0.0176
    687 H           1.7087    3.6168    0.7187 H     1    ESP         0.0170
    688 H           1.2827    3.3997    0.7187 H     1    ESP         0.0170
    689 H           3.6344    1.6912    0.7187 H     1    ESP         0.0183
    690 H           3.8439    2.1634    0.2599 H     1    ESP         0.0194
    691 H           3.7765    2.6319    0.2599 H     1    ESP         0.0190
    692 H           3.5799    3.0624    0.2599 H     1    ESP         0.0192
    693 H           3.2699    3.4202    0.2599 H     1    ESP         0.0194
    694 H           2.8718    3.6760    0.2599 H     1    ESP         0.0194
    695 H           2.4176    3.8094    0.2599 H     1    ESP         0.0191
    696 H           1.9443    3.8094    0.2599 H     1    ESP         0.0187
    697 H           1.4902    3.6760    0.2599 H     1    ESP         0.0187
    698 H           1.0920    3.4202    0.2599 H     1    ESP         0.0204
    699 H           3.7765    1.6949    0.2599 H     1    ESP         0.0220
    700 H           3.8439    2.1634   -0.2183 H     1    ESP         0.0193
    701 H           3.7765    2.6319   -0.2183 H     1    ESP         0.0189
    702 H           3.5799    3.0624   -0.2183 H     1    ESP         0.0192
    703 H           3.2699    3.4202   -0.2183 H     1    ESP         0.0194
    704 H           2.8718    3.6760   -0.2183 H     1    ESP         0.0194
    705 H           2.4176    3.8094   -0.2183 H     1    ESP         0.0191
    706 H           1.9443    3.8094   -0.2183 H     1    ESP         0.0187
    707 H           1.4902    3.6760   -0.2183 H     1    ESP         0.0187
    708 H           1.0920    3.4202   -0.2183 H     1    ESP         0.0205
    709 H           3.7765    1.6949   -0.2183 H     1    ESP         0.0219
    710 H           3.7092    2.1634   -0.6771 H     1    ESP         0.0171
    711 H           3.6344    2.6357   -0.6771 H     1    ESP         0.0174
    712 H           3.4173    3.0617   -0.6771 H     1    ESP         0.0179
    713 H           3.0792    3.3997   -0.6771 H     1    ESP         0.0182
    714 H           2.6532    3.6168   -0.6771 H     1    ESP         0.0180
    715 H           2.1810    3.6916   -0.6771 H     1    ESP         0.0176
    716 H           1.7087    3.6168   -0.6771 H     1    ESP         0.0170
    717 H           1.2827    3.3997   -0.6771 H     1    ESP         0.0172
    718 H           3.6344    1.6912   -0.6771 H     1    ESP         0.0180
    719 H           3.4506    2.1634   -1.0794 H     1    ESP         0.0135
    720 H           3.3649    2.6221   -1.0794 H     1    ESP         0.0147
    721 H           3.1193    3.0188   -1.0794 H     1    ESP         0.0155
    722 H           2.7469    3.3000   -1.0794 H     1    ESP         0.0156
    723 H           2.2981    3.4277   -1.0794 H     1    ESP         0.0152
    724 H           1.8335    3.3846   -1.0794 H     1    ESP         0.0142
    725 H           1.4158    3.1766   -1.0794 H     1    ESP         0.0130
    726 H           3.0893    2.1634   -1.3925 H     1    ESP         0.0091
    727 H           2.9676    2.6176   -1.3925 H     1    ESP         0.0112
    728 H           2.6351    2.9500   -1.3925 H     1    ESP         0.0119
    729 H           2.1810    3.0717   -1.3925 H     1    ESP         0.0112
    730 H           1.7268    2.9500   -1.3925 H     1    ESP         0.0091
    731 H           2.6543    2.1634   -1.5912 H     1    ESP         0.0048
    732 H           2.4176    2.5733   -1.5912 H     1    ESP         0.0070
    733 H           1.9443    2.5733   -1.5912 H     1    ESP         0.0048
    734 H          -0.0701    2.5571    1.6102 H     1    ESP         0.0030
    735 H          -0.5434    2.5571    1.6102 H     1    ESP         0.0036
    736 H          -0.7801    2.1472    1.6102 H     1    ESP         0.0003
    737 H           0.1474    2.9338    1.4115 H     1    ESP         0.0078
    738 H          -0.3068    3.0555    1.4115 H     1    ESP         0.0088
    739 H          -0.7609    2.9338    1.4115 H     1    ESP         0.0078
    740 H          -1.0934    2.6013    1.4115 H     1    ESP         0.0049
    741 H          -1.2151    2.1472    1.4115 H     1    ESP         0.0010
    742 H           0.6315    3.0026    1.0984 H     1    ESP         0.0121
    743 H           0.2592    3.2837    1.0984 H     1    ESP         0.0127
    744 H          -0.1896    3.4114    1.0984 H     1    ESP         0.0129
    745 H          -0.6542    3.3684    1.0984 H     1    ESP         0.0122
    746 H          -1.0719    3.1604    1.0984 H     1    ESP         0.0103
    747 H          -1.3863    2.8156    1.0984 H     1    ESP         0.0071
    748 H          -1.5548    2.3805    1.0984 H     1    ESP         0.0027
    749 H           0.5915    3.3835    0.6961 H     1    ESP         0.0170
    750 H           0.1655    3.6006    0.6961 H     1    ESP         0.0161
    751 H          -0.3068    3.6754    0.6961 H     1    ESP         0.0156
    752 H          -0.7790    3.6006    0.6961 H     1    ESP         0.0145
    753 H          -1.2050    3.3835    0.6961 H     1    ESP         0.0126
    754 H          -1.5431    3.0454    0.6961 H     1    ESP         0.0093
    755 H          -1.7602    2.6194    0.6961 H     1    ESP         0.0046
    756 H           0.7822    3.4039    0.2373 H     1    ESP         0.0206
    757 H           0.3840    3.6598    0.2373 H     1    ESP         0.0183
    758 H          -0.0701    3.7932    0.2373 H     1    ESP         0.0174
    759 H          -0.5434    3.7932    0.2373 H     1    ESP         0.0165
    760 H          -0.9976    3.6598    0.2373 H     1    ESP         0.0152
    761 H          -1.3957    3.4039    0.2373 H     1    ESP         0.0128
    762 H          -1.7057    3.0462    0.2373 H     1    ESP         0.0092
    763 H          -1.9023    2.6157    0.2373 H     1    ESP         0.0040
    764 H           0.7822    3.4039   -0.2409 H     1    ESP         0.0205
    765 H           0.3840    3.6598   -0.2409 H     1    ESP         0.0182
    766 H          -0.0701    3.7932   -0.2409 H     1    ESP         0.0173
    767 H          -0.5434    3.7932   -0.2409 H     1    ESP         0.0165
    768 H          -0.9976    3.6598   -0.2409 H     1    ESP         0.0152
    769 H          -1.3957    3.4039   -0.2409 H     1    ESP         0.0128
    770 H          -1.7057    3.0462   -0.2409 H     1    ESP         0.0092
    771 H          -1.9023    2.6157   -0.2409 H     1    ESP         0.0039
    772 H           0.5915    3.3835   -0.6997 H     1    ESP         0.0168
    773 H           0.1655    3.6006   -0.6997 H     1    ESP         0.0161
    774 H          -0.3068    3.6754   -0.6997 H     1    ESP         0.0155
    775 H          -0.7790    3.6006   -0.6997 H     1    ESP         0.0145
    776 H          -1.2050    3.3835   -0.6997 H     1    ESP         0.0126
    777 H          -1.5431    3.0454   -0.6997 H     1    ESP         0.0093
    778 H          -1.7602    2.6194   -0.6997 H     1    ESP         0.0045
    779 H           0.6315    3.0026   -1.1020 H     1    ESP         0.0119
    780 H           0.2592    3.2837   -1.1020 H     1    ESP         0.0126
    781 H          -0.1896    3.4114   -1.1020 H     1    ESP         0.0128
    782 H          -0.6542    3.3684   -1.1020 H     1    ESP         0.0122
    783 H          -1.0719    3.1604   -1.1020 H     1    ESP         0.0104
    784 H          -1.3863    2.8156   -1.1020 H     1    ESP         0.0071
    785 H          -1.5548    2.3805   -1.1020 H     1    ESP         0.0026
    786 H           0.1474    2.9338   -1.4151 H     1    ESP         0.0077
    787 H          -0.3068    3.0555   -1.4151 H     1    ESP         0.0088
    788 H          -0.7609    2.9338   -1.4151 H     1    ESP         0.0078
    789 H          -1.0934    2.6013   -1.4151 H     1    ESP         0.0049
    790 H          -1.2151    2.1472   -1.4151 H     1    ESP         0.0010
    791 H          -0.0701    2.5571   -1.6137 H     1    ESP         0.0030
    792 H          -0.5434    2.5571   -1.6137 H     1    ESP         0.0036
    793 H          -0.7801    2.1472   -1.6137 H     1    ESP         0.0004
    794 H           0.2653   -1.2149    2.4021 H     1    ESP        -0.0126
    795 H           0.7336   -1.2149    2.3560 H     1    ESP        -0.0135
    796 H           0.4995   -0.8095    2.3560 H     1    ESP        -0.0147
    797 H           0.0312   -0.8095    2.3560 H     1    ESP        -0.0140
    798 H          -0.2029   -1.2149    2.3560 H     1    ESP        -0.0117
    799 H           0.0312   -1.6204    2.3560 H     1    ESP        -0.0097
    800 H           0.4995   -1.6204    2.3560 H     1    ESP        -0.0106
    801 H           0.7246   -0.4195    2.2194 H     1    ESP        -0.0161
    802 H          -0.6531   -1.2149    2.2194 H     1    ESP        -0.0109
    803 H          -0.5300   -1.6742    2.2194 H     1    ESP        -0.0082
    804 H          -0.1939   -2.0103    2.2194 H     1    ESP        -0.0063
    805 H           0.2653   -2.1334    2.2194 H     1    ESP        -0.0061
    806 H           0.7246   -2.0103    2.2194 H     1    ESP        -0.0077
    807 H           0.9320   -0.0602    1.9976 H     1    ESP        -0.0165
    808 H          -0.9876   -1.6710    1.9976 H     1    ESP        -0.0075
    809 H          -0.7561   -2.0720    1.9976 H     1    ESP        -0.0044
    810 H          -0.4013   -2.3697    1.9976 H     1    ESP        -0.0022
    811 H           0.0338   -2.5281    1.9976 H     1    ESP        -0.0015
    812 H           0.4969   -2.5281    1.9976 H     1    ESP        -0.0021
    813 H           0.9320   -2.3697    1.9976 H     1    ESP        -0.0037
    814 H           0.6106   -2.8765    1.6991 H     1    ESP         0.0029
    815 H           0.9505   -3.3237    0.9205 H     1    ESP         0.0137
    816 H           0.9505   -3.3237   -0.9164 H     1    ESP         0.0136
    817 H           0.6106   -2.8765   -1.6950 H     1    ESP         0.0029
    818 H           0.9320   -0.0602   -1.9935 H     1    ESP        -0.0165
    819 H          -0.9876   -1.6710   -1.9935 H     1    ESP        -0.0074
    820 H          -0.7561   -2.0720   -1.9935 H     1    ESP        -0.0043
    821 H          -0.4013   -2.3697   -1.9935 H     1    ESP        -0.0021
    822 H           0.0338   -2.5281   -1.9935 H     1    ESP        -0.0014
    823 H           0.4969   -2.5281   -1.9935 H     1    ESP        -0.0020
    824 H           0.9320   -2.3697   -1.9935 H     1    ESP        -0.0037
    825 H           0.7246   -0.4195   -2.2152 H     1    ESP        -0.0160
    826 H          -0.6531   -1.2149   -2.2152 H     1    ESP        -0.0108
    827 H          -0.5300   -1.6742   -2.2152 H     1    ESP        -0.0081
    828 H          -0.1939   -2.0103   -2.2152 H     1    ESP        -0.0062
    829 H           0.2653   -2.1334   -2.2152 H     1    ESP        -0.0060
    830 H           0.7246   -2.0103   -2.2152 H     1    ESP        -0.0077
    831 H           0.7336   -1.2149   -2.3518 H     1    ESP        -0.0134
    832 H           0.4995   -0.8095   -2.3518 H     1    ESP        -0.0147
    833 H           0.0312   -0.8095   -2.3518 H     1    ESP        -0.0139
    834 H          -0.2029   -1.2149   -2.3518 H     1    ESP        -0.0116
    835 H           0.0312   -1.6204   -2.3518 H     1    ESP        -0.0096
    836 H           0.4995   -1.6204   -2.3518 H     1    ESP        -0.0105
    837 H           0.2653   -1.2149   -2.3979 H     1    ESP        -0.0125
    838 H           1.6611   -1.1989    2.4146 H     1    ESP        -0.0114
    839 H           2.1293   -1.1989    2.3685 H     1    ESP        -0.0094
    840 H           1.8952   -0.7935    2.3685 H     1    ESP        -0.0129
    841 H           1.4270   -0.7935    2.3685 H     1    ESP        -0.0143
    842 H           1.1929   -1.1989    2.3685 H     1    ESP        -0.0131
    843 H           1.4270   -1.6044    2.3685 H     1    ESP        -0.0097
    844 H           1.8952   -1.6044    2.3685 H     1    ESP        -0.0077
    845 H           2.5795   -1.1989    2.2319 H     1    ESP        -0.0067
    846 H           1.2019   -0.4036    2.2319 H     1    ESP        -0.0161
    847 H           1.2019   -1.9943    2.2319 H     1    ESP        -0.0073
    848 H           1.6611   -2.1174    2.2319 H     1    ESP        -0.0046
    849 H           2.1203   -1.9943    2.2319 H     1    ESP        -0.0035
    850 H           2.4565   -1.6582    2.2319 H     1    ESP        -0.0042
    851 H           2.9945   -1.1989    2.0101 H     1    ESP        -0.0029
    852 H           0.9944   -0.0442    2.0101 H     1    ESP        -0.0166
    853 H           0.9944   -2.3537    2.0101 H     1    ESP        -0.0039
    854 H           1.4295   -2.5121    2.0101 H     1    ESP        -0.0012
    855 H           1.8926   -2.5121    2.0101 H     1    ESP         0.0005
    856 H           2.3278   -2.3537    2.0101 H     1    ESP         0.0013
    857 H           2.6825   -2.0560    2.0101 H     1    ESP         0.0009
    858 H           2.9140   -1.6550    2.0101 H     1    ESP        -0.0006
    859 H           1.0928   -2.7980    1.7116 H     1    ESP         0.0024
    860 H           1.5453   -2.8920    1.7116 H     1    ESP         0.0043
    861 H           3.1111   -2.0807    1.7116 H     1    ESP         0.0054
    862 H           3.2952   -1.6568    1.7116 H     1    ESP         0.0039
    863 H           1.0888   -3.1106    1.3480 H     1    ESP         0.0082
    864 H           3.6028   -1.6591    1.3480 H     1    ESP         0.0090
    865 H           3.8299   -1.6599    0.9330 H     1    ESP         0.0142
    866 H           3.8299   -1.6599   -0.9038 H     1    ESP         0.0138
    867 H           1.0888   -3.1106   -1.3188 H     1    ESP         0.0084
    868 H           3.6028   -1.6591   -1.3188 H     1    ESP         0.0086
    869 H           1.0928   -2.7980   -1.6825 H     1    ESP         0.0025
    870 H           1.5453   -2.8920   -1.6825 H     1    ESP         0.0043
    871 H           3.1111   -2.0807   -1.6825 H     1    ESP         0.0051
    872 H           3.2952   -1.6568   -1.6825 H     1    ESP         0.0035
    873 H           2.9945   -1.1989   -1.9809 H     1    ESP        -0.0033
    874 H           0.9944   -0.0442   -1.9809 H     1    ESP        -0.0166
    875 H           0.9944   -2.3537   -1.9809 H     1    ESP        -0.0038
    876 H           1.4295   -2.5121   -1.9809 H     1    ESP        -0.0013
    877 H           1.8926   -2.5121   -1.9809 H     1    ESP         0.0004
    878 H           2.3278   -2.3537   -1.9809 H     1    ESP         0.0011
    879 H           2.6825   -2.0560   -1.9809 H     1    ESP         0.0006
    880 H           2.9140   -1.6550   -1.9809 H     1    ESP        -0.0009
    881 H           2.5795   -1.1989   -2.2027 H     1    ESP        -0.0069
    882 H           1.2019   -0.4036   -2.2027 H     1    ESP        -0.0162
    883 H           1.2019   -1.9943   -2.2027 H     1    ESP        -0.0074
    884 H           1.6611   -2.1174   -2.2027 H     1    ESP        -0.0047
    885 H           2.1203   -1.9943   -2.2027 H     1    ESP        -0.0037
    886 H           2.4565   -1.6582   -2.2027 H     1    ESP        -0.0045
    887 H           2.1293   -1.1989   -2.3393 H     1    ESP        -0.0096
    888 H           1.8952   -0.7935   -2.3393 H     1    ESP        -0.0130
    889 H           1.4270   -0.7935   -2.3393 H     1    ESP        -0.0144
    890 H           1.1929   -1.1989   -2.3393 H     1    ESP        -0.0132
    891 H           1.4270   -1.6044   -2.3393 H     1    ESP        -0.0099
    892 H           1.8952   -1.6044   -2.3393 H     1    ESP        -0.0079
    893 H           1.6611   -1.1989   -2.3854 H     1    ESP        -0.0116
    894 H           2.3553    0.0124    2.4214 H     1    ESP        -0.0113
    895 H           2.8235    0.0124    2.3753 H     1    ESP        -0.0077
    896 H           2.5894    0.4179    2.3753 H     1    ESP        -0.0094
    897 H           2.1212    0.4179    2.3753 H     1    ESP        -0.0128
    898 H           1.8871    0.0124    2.3753 H     1    ESP        -0.0143
    899 H           2.1212   -0.3930    2.3753 H     1    ESP        -0.0129
    900 H           2.5894   -0.3930    2.3753 H     1    ESP        -0.0094
    901 H           3.2737    0.0124    2.2387 H     1    ESP        -0.0035
    902 H           3.1507    0.4717    2.2387 H     1    ESP        -0.0043
    903 H           2.8145    0.8078    2.2387 H     1    ESP        -0.0067
    904 H           1.4369    0.0124    2.2387 H     1    ESP        -0.0161
    905 H           2.8145   -0.7829    2.2387 H     1    ESP        -0.0068
    906 H           3.1507   -0.4468    2.2387 H     1    ESP        -0.0043
    907 H           3.6887    0.0124    2.0169 H     1    ESP         0.0013
    908 H           3.6083    0.4685    2.0169 H     1    ESP         0.0008
    909 H           3.3767    0.8695    2.0169 H     1    ESP        -0.0007
    910 H           3.0220    1.1672    2.0169 H     1    ESP        -0.0029
    911 H           1.0219    0.0124    2.0169 H     1    ESP        -0.0166
    912 H           3.0220   -1.1423    2.0169 H     1    ESP        -0.0030
    913 H           3.3767   -0.8446    2.0169 H     1    ESP        -0.0007
    914 H           3.6083   -0.4436    2.0169 H     1    ESP         0.0007
    915 H           3.8053    0.8942    1.7184 H     1    ESP         0.0051
    916 H           3.5136    1.2527    1.7184 H     1    ESP         0.0035
    917 H           3.5136   -1.2278    1.7184 H     1    ESP         0.0035
    918 H           3.8053   -0.8693    1.7184 H     1    ESP         0.0050
    919 H           3.8390   -1.6353    0.9398 H     1    ESP         0.0141
    920 H           3.8390    1.6602   -0.8970 H     1    ESP         0.0138
    921 H           3.8390   -1.6353   -0.8970 H     1    ESP         0.0139
    922 H           3.8053    0.8942   -1.6757 H     1    ESP         0.0046
    923 H           3.5136    1.2527   -1.6757 H     1    ESP         0.0031
    924 H           3.5136   -1.2278   -1.6757 H     1    ESP         0.0031
    925 H           3.8053   -0.8693   -1.6757 H     1    ESP         0.0046
    926 H           3.6887    0.0124   -1.9741 H     1    ESP         0.0008
    927 H           3.6083    0.4685   -1.9741 H     1    ESP         0.0003
    928 H           3.3767    0.8695   -1.9741 H     1    ESP        -0.0011
    929 H           3.0220    1.1672   -1.9741 H     1    ESP        -0.0033
    930 H           1.0219    0.0124   -1.9741 H     1    ESP        -0.0166
    931 H           3.0220   -1.1423   -1.9741 H     1    ESP        -0.0034
    932 H           3.3767   -0.8446   -1.9741 H     1    ESP        -0.0011
    933 H           3.6083   -0.4436   -1.9741 H     1    ESP         0.0003
    934 H           3.2737    0.0124   -2.1959 H     1    ESP        -0.0039
    935 H           3.1507    0.4717   -2.1959 H     1    ESP        -0.0047
    936 H           2.8145    0.8078   -2.1959 H     1    ESP        -0.0070
    937 H           1.4369    0.0124   -2.1959 H     1    ESP        -0.0162
    938 H           2.8145   -0.7829   -2.1959 H     1    ESP        -0.0071
    939 H           3.1507   -0.4468   -2.1959 H     1    ESP        -0.0047
    940 H           2.8235    0.0124   -2.3325 H     1    ESP        -0.0080
    941 H           2.5894    0.4179   -2.3325 H     1    ESP        -0.0097
    942 H           2.1212    0.4179   -2.3325 H     1    ESP        -0.0131
    943 H           1.8871    0.0124   -2.3325 H     1    ESP        -0.0145
    944 H           2.1212   -0.3930   -2.3325 H     1    ESP        -0.0131
    945 H           2.5894   -0.3930   -2.3325 H     1    ESP        -0.0098
    946 H           2.3553    0.0124   -2.3786 H     1    ESP        -0.0116
    947 H           1.6483    1.2164    2.4157 H     1    ESP        -0.0114
    948 H           2.1165    1.2164    2.3696 H     1    ESP        -0.0094
    949 H           1.8824    1.6219    2.3696 H     1    ESP        -0.0077
    950 H           1.4142    1.6219    2.3696 H     1    ESP        -0.0097
    951 H           1.1801    1.2164    2.3696 H     1    ESP        -0.0131
    952 H           1.4142    0.8110    2.3696 H     1    ESP        -0.0143
    953 H           1.8824    0.8110    2.3696 H     1    ESP        -0.0129
    954 H           2.5667    1.2164    2.2330 H     1    ESP        -0.0067
    955 H           2.4437    1.6757    2.2330 H     1    ESP        -0.0042
    956 H           2.1075    2.0118    2.2330 H     1    ESP        -0.0035
    957 H           1.6483    2.1349    2.2330 H     1    ESP        -0.0045
    958 H           1.1891    2.0118    2.2330 H     1    ESP        -0.0072
    959 H           1.1891    0.4211    2.2330 H     1    ESP        -0.0161
    960 H           2.9817    1.2164    2.0112 H     1    ESP        -0.0030
    961 H           2.9013    1.6725    2.0112 H     1    ESP        -0.0006
    962 H           2.6697    2.0735    2.0112 H     1    ESP         0.0009
    963 H           2.3150    2.3712    2.0112 H     1    ESP         0.0013
    964 H           1.8798    2.5296    2.0112 H     1    ESP         0.0006
    965 H           1.4168    2.5296    2.0112 H     1    ESP        -0.0011
    966 H           0.9816    2.3712    2.0112 H     1    ESP        -0.0037
    967 H           0.9816    0.0617    2.0112 H     1    ESP        -0.0166
    968 H           3.2824    1.6743    1.7127 H     1    ESP         0.0038
    969 H           3.0983    2.0982    1.7127 H     1    ESP         0.0054
    970 H           1.5325    2.9095    1.7127 H     1    ESP         0.0044
    971 H           1.0800    2.8155    1.7127 H     1    ESP         0.0025
    972 H           3.5900    1.6766    1.3490 H     1    ESP         0.0090
    973 H           1.0760    3.1281    1.3490 H     1    ESP         0.0083
    974 H           3.8172    1.6774   -0.9028 H     1    ESP         0.0138
    975 H           3.5900    1.6766   -1.3177 H     1    ESP         0.0085
    976 H           1.0760    3.1281   -1.3177 H     1    ESP         0.0084
    977 H           3.2824    1.6743   -1.6814 H     1    ESP         0.0034
    978 H           3.0983    2.0982   -1.6814 H     1    ESP         0.0050
    979 H           1.5325    2.9095   -1.6814 H     1    ESP         0.0043
    980 H           1.0800    2.8155   -1.6814 H     1    ESP         0.0026
    981 H           2.9817    1.2164   -1.9799 H     1    ESP        -0.0034
    982 H           2.9013    1.6725   -1.9799 H     1    ESP        -0.0010
    983 H           2.6697    2.0735   -1.9799 H     1    ESP         0.0006
    984 H           2.3150    2.3712   -1.9799 H     1    ESP         0.0011
    985 H           1.8798    2.5296   -1.9799 H     1    ESP         0.0004
    986 H           1.4168    2.5296   -1.9799 H     1    ESP        -0.0012
    987 H           0.9816    2.3712   -1.9799 H     1    ESP        -0.0038
    988 H           0.9816    0.0617   -1.9799 H     1    ESP        -0.0165
    989 H           2.5667    1.2164   -2.2016 H     1    ESP        -0.0070
    990 H           2.4437    1.6757   -2.2016 H     1    ESP        -0.0045
    991 H           2.1075    2.0118   -2.2016 H     1    ESP        -0.0037
    992 H           1.6483    2.1349   -2.2016 H     1    ESP        -0.0047
    993 H           1.1891    2.0118   -2.2016 H     1    ESP        -0.0074
    994 H           1.1891    0.4211   -2.2016 H     1    ESP        -0.0162
    995 H           2.1165    1.2164   -2.3382 H     1    ESP        -0.0096
    996 H           1.8824    1.6219   -2.3382 H     1    ESP        -0.0079
    997 H           1.4142    1.6219   -2.3382 H     1    ESP        -0.0098
    998 H           1.1801    1.2164   -2.3382 H     1    ESP        -0.0132
    999 H           1.4142    0.8110   -2.3382 H     1    ESP        -0.0144
   1000 H           1.8824    0.8110   -2.3382 H     1    ESP        -0.0130
   1001 H           1.6483    1.2164   -2.3843 H     1    ESP        -0.0116
   1002 H           0.2525    1.2177    2.4030 H     1    ESP        -0.0126
   1003 H           0.7207    1.2177    2.3569 H     1    ESP        -0.0135
   1004 H           0.4866    1.6232    2.3569 H     1    ESP        -0.0106
   1005 H           0.0184    1.6232    2.3569 H     1    ESP        -0.0097
   1006 H          -0.2157    1.2177    2.3569 H     1    ESP        -0.0117
   1007 H           0.0184    0.8122    2.3569 H     1    ESP        -0.0140
   1008 H           0.4866    0.8122    2.3569 H     1    ESP        -0.0147
   1009 H           0.7117    2.0131    2.2203 H     1    ESP        -0.0078
   1010 H           0.2525    2.1361    2.2203 H     1    ESP        -0.0061
   1011 H          -0.2067    2.0131    2.2203 H     1    ESP        -0.0063
   1012 H          -0.5429    1.6769    2.2203 H     1    ESP        -0.0082
   1013 H          -0.6660    1.2177    2.2203 H     1    ESP        -0.0108
   1014 H           0.7117    0.4223    2.2203 H     1    ESP        -0.0161
   1015 H           0.9192    2.3724    1.9986 H     1    ESP        -0.0038
   1016 H           0.4840    2.5308    1.9986 H     1    ESP        -0.0021
   1017 H           0.0209    2.5308    1.9986 H     1    ESP        -0.0015
   1018 H          -0.4142    2.3724    1.9986 H     1    ESP        -0.0022
   1019 H          -0.7689    2.0747    1.9986 H     1    ESP        -0.0043
   1020 H          -1.0005    1.6737    1.9986 H     1    ESP        -0.0074
   1021 H           0.9192    0.0629    1.9986 H     1    ESP        -0.0165
   1022 H           0.5978    2.8792    1.7001 H     1    ESP         0.0029
   1023 H           0.9377    3.3265    0.9215 H     1    ESP         0.0138
   1024 H           0.9377    3.3265   -0.9154 H     1    ESP         0.0136
   1025 H           0.5978    2.8792   -1.6940 H     1    ESP         0.0028
   1026 H           0.9192    2.3724   -1.9925 H     1    ESP        -0.0038
   1027 H           0.4840    2.5308   -1.9925 H     1    ESP        -0.0021
   1028 H           0.0209    2.5308   -1.9925 H     1    ESP        -0.0014
   1029 H          -0.4142    2.3724   -1.9925 H     1    ESP        -0.0021
   1030 H          -0.7689    2.0747   -1.9925 H     1    ESP        -0.0042
   1031 H          -1.0005    1.6737   -1.9925 H     1    ESP        -0.0074
   1032 H           0.9192    0.0629   -1.9925 H     1    ESP        -0.0165
   1033 H           0.7117    2.0131   -2.2143 H     1    ESP        -0.0077
   1034 H           0.2525    2.1361   -2.2143 H     1    ESP        -0.0060
   1035 H          -0.2067    2.0131   -2.2143 H     1    ESP        -0.0062
   1036 H          -0.5429    1.6769   -2.2143 H     1    ESP        -0.0081
   1037 H          -0.6660    1.2177   -2.2143 H     1    ESP        -0.0108
   1038 H           0.7117    0.4223   -2.2143 H     1    ESP        -0.0160
   1039 H           0.7207    1.2177   -2.3508 H     1    ESP        -0.0134
   1040 H           0.4866    1.6232   -2.3508 H     1    ESP        -0.0105
   1041 H           0.0184    1.6232   -2.3508 H     1    ESP        -0.0096
   1042 H          -0.2157    1.2177   -2.3508 H     1    ESP        -0.0116
   1043 H           0.0184    0.8122   -2.3508 H     1    ESP        -0.0139
   1044 H           0.4866    0.8122   -2.3508 H     1    ESP        -0.0147
   1045 H           0.2525    1.2177   -2.3970 H     1    ESP        -0.0125
   1046 H          -0.4236   -0.0022    2.3964 H     1    ESP        -0.0139
   1047 H           0.0446   -0.0022    2.3503 H     1    ESP        -0.0149
   1048 H          -0.1895    0.4032    2.3503 H     1    ESP        -0.0143
   1049 H          -0.6577    0.4032    2.3503 H     1    ESP        -0.0133
   1050 H          -0.6577   -0.4077    2.3503 H     1    ESP        -0.0133
   1051 H          -0.1895   -0.4077    2.3503 H     1    ESP        -0.0143
   1052 H           0.4948   -0.0022    2.2137 H     1    ESP        -0.0160
   1053 H           0.9097   -0.0022    1.9919 H     1    ESP        -0.0165
   1054 H           0.9097   -0.0022   -1.9991 H     1    ESP        -0.0165
   1055 H           0.4948   -0.0022   -2.2209 H     1    ESP        -0.0159
   1056 H           0.0446   -0.0022   -2.3575 H     1    ESP        -0.0148
   1057 H          -0.1895    0.4032   -2.3575 H     1    ESP        -0.0142
   1058 H          -0.6577    0.4032   -2.3575 H     1    ESP        -0.0133
   1059 H          -0.6577   -0.4077   -2.3575 H     1    ESP        -0.0133
   1060 H          -0.1895   -0.4077   -2.3575 H     1    ESP        -0.0142
   1061 H          -0.4236   -0.0022   -2.4036 H     1    ESP        -0.0138
   1062 H          -2.1848   -0.0115    2.6999 H     1    ESP        -0.0155
   1063 H          -1.7371   -0.0115    2.6628 H     1    ESP        -0.0146
   1064 H          -1.9609    0.3762    2.6628 H     1    ESP        -0.0150
   1065 H          -2.4086    0.3762    2.6628 H     1    ESP        -0.0157
   1066 H          -2.6325   -0.0115    2.6628 H     1    ESP        -0.0159
   1067 H          -2.4086   -0.3993    2.6628 H     1    ESP        -0.0157
   1068 H          -1.9609   -0.3993    2.6628 H     1    ESP        -0.0150
   1069 H          -1.3016   -0.0115    2.5525 H     1    ESP        -0.0137
   1070 H          -1.4199    0.4300    2.5525 H     1    ESP        -0.0137
   1071 H          -1.7432    0.7533    2.5525 H     1    ESP        -0.0140
   1072 H          -2.1848    0.8716    2.5525 H     1    ESP        -0.0148
   1073 H          -2.6264    0.7533    2.5525 H     1    ESP        -0.0155
   1074 H          -2.9496    0.4300    2.5525 H     1    ESP        -0.0157
   1075 H          -3.0679   -0.0115    2.5525 H     1    ESP        -0.0157
   1076 H          -2.9496   -0.4531    2.5525 H     1    ESP        -0.0157
   1077 H          -2.6264   -0.7764    2.5525 H     1    ESP        -0.0155
   1078 H          -2.1848   -0.8947    2.5525 H     1    ESP        -0.0148
   1079 H          -1.7432   -0.7764    2.5525 H     1    ESP        -0.0140
   1080 H          -1.4199   -0.4531    2.5525 H     1    ESP        -0.0137
   1081 H          -0.8902   -0.0115    2.3721 H     1    ESP        -0.0134
   1082 H          -0.9683    0.4312    2.3721 H     1    ESP        -0.0131
   1083 H          -1.1931    0.8206    2.3721 H     1    ESP        -0.0125
   1084 H          -1.5375    1.1096    2.3721 H     1    ESP        -0.0125
   1085 H          -1.9600    1.2634    2.3721 H     1    ESP        -0.0133
   1086 H          -2.4096    1.2634    2.3721 H     1    ESP        -0.0143
   1087 H          -2.8320    1.1096    2.3721 H     1    ESP        -0.0150
   1088 H          -3.1765    0.8206    2.3721 H     1    ESP        -0.0151
   1089 H          -3.4013    0.4312    2.3721 H     1    ESP        -0.0148
   1090 H          -3.4793   -0.0115    2.3721 H     1    ESP        -0.0147
   1091 H          -3.4013   -0.4543    2.3721 H     1    ESP        -0.0148
   1092 H          -3.1765   -0.8437    2.3721 H     1    ESP        -0.0151
   1093 H          -2.8320   -1.1327    2.3721 H     1    ESP        -0.0150
   1094 H          -2.4096   -1.2865    2.3721 H     1    ESP        -0.0144
   1095 H          -1.9600   -1.2865    2.3721 H     1    ESP        -0.0133
   1096 H          -1.5375   -1.1327    2.3721 H     1    ESP        -0.0125
   1097 H          -1.1931   -0.8437    2.3721 H     1    ESP        -0.0125
   1098 H          -0.9683   -0.4543    2.3721 H     1    ESP        -0.0131
   1099 H          -1.0444    1.2094    2.1263 H     1    ESP        -0.0106
   1100 H          -1.4161    1.4718    2.1263 H     1    ESP        -0.0102
   1101 H          -1.8449    1.6242    2.1263 H     1    ESP        -0.0112
   1102 H          -2.2988    1.6552    2.1263 H     1    ESP        -0.0128
   1103 H          -2.7442    1.5626    2.1263 H     1    ESP        -0.0140
   1104 H          -3.1482    1.3533    2.1263 H     1    ESP        -0.0144
   1105 H          -3.4807    1.0428    2.1263 H     1    ESP        -0.0141
   1106 H          -3.7171    0.6540    2.1263 H     1    ESP        -0.0136
   1107 H          -3.8399    0.2159    2.1263 H     1    ESP        -0.0131
   1108 H          -3.8399   -0.2390    2.1263 H     1    ESP        -0.0131
   1109 H          -3.7171   -0.6771    2.1263 H     1    ESP        -0.0135
   1110 H          -3.4807   -1.0659    2.1263 H     1    ESP        -0.0141
   1111 H          -3.1482   -1.3764    2.1263 H     1    ESP        -0.0144
   1112 H          -2.7442   -1.5857    2.1263 H     1    ESP        -0.0140
   1113 H          -2.2988   -1.6783    2.1263 H     1    ESP        -0.0129
   1114 H          -1.8449   -1.6473    2.1263 H     1    ESP        -0.0113
   1115 H          -1.4161   -1.4949    2.1263 H     1    ESP        -0.0103
   1116 H          -1.0444   -1.2325    2.1263 H     1    ESP        -0.0106
   1117 H          -1.3921    1.8260    1.8221 H     1    ESP        -0.0069
   1118 H          -1.8373    1.9592    1.8221 H     1    ESP        -0.0087
   1119 H          -2.3011    1.9862    1.8221 H     1    ESP        -0.0111
   1120 H          -2.7587    1.9056    1.8221 H     1    ESP        -0.0128
   1121 H          -3.1853    1.7215    1.8221 H     1    ESP        -0.0135
   1122 H          -3.5580    1.4441    1.8221 H     1    ESP        -0.0133
   1123 H          -3.8567    1.0881    1.8221 H     1    ESP        -0.0126
   1124 H          -4.0652    0.6729    1.8221 H     1    ESP        -0.0117
   1125 H          -4.1724    0.2208    1.8221 H     1    ESP        -0.0112
   1126 H          -4.1724   -0.2439    1.8221 H     1    ESP        -0.0112
   1127 H          -4.0652   -0.6960    1.8221 H     1    ESP        -0.0117
   1128 H          -3.8567   -1.1112    1.8221 H     1    ESP        -0.0125
   1129 H          -3.5580   -1.4671    1.8221 H     1    ESP        -0.0133
   1130 H          -3.1853   -1.7446    1.8221 H     1    ESP        -0.0135
   1131 H          -2.7587   -1.9286    1.8221 H     1    ESP        -0.0129
   1132 H          -2.3011   -2.0093    1.8221 H     1    ESP        -0.0112
   1133 H          -1.8373   -1.9823    1.8221 H     1    ESP        -0.0089
   1134 H          -1.3921   -1.8491    1.8221 H     1    ESP        -0.0069
   1135 H          -1.8399    2.2393    1.4676 H     1    ESP        -0.0055
   1136 H          -2.3001    2.2626    1.4676 H     1    ESP        -0.0090
   1137 H          -2.7555    2.1929    1.4676 H     1    ESP        -0.0114
   1138 H          -3.1876    2.0328    1.4676 H     1    ESP        -0.0126
   1139 H          -3.5786    1.7891    1.4676 H     1    ESP        -0.0126
   1140 H          -3.9125    1.4717    1.4676 H     1    ESP        -0.0118
   1141 H          -4.1757    1.0935    1.4676 H     1    ESP        -0.0107
   1142 H          -4.3574    0.6701    1.4676 H     1    ESP        -0.0097
   1143 H          -4.4502    0.2188    1.4676 H     1    ESP        -0.0091
   1144 H          -4.4502   -0.2419    1.4676 H     1    ESP        -0.0091
   1145 H          -4.3574   -0.6932    1.4676 H     1    ESP        -0.0097
   1146 H          -4.1757   -1.1166    1.4676 H     1    ESP        -0.0107
   1147 H          -3.9125   -1.4948    1.4676 H     1    ESP        -0.0118
   1148 H          -3.5786   -1.8122    1.4676 H     1    ESP        -0.0125
   1149 H          -3.1876   -2.0559    1.4676 H     1    ESP        -0.0126
   1150 H          -2.7555   -2.2159    1.4676 H     1    ESP        -0.0115
   1151 H          -2.3001   -2.2857    1.4676 H     1    ESP        -0.0092
   1152 H          -1.8399   -2.2624    1.4676 H     1    ESP        -0.0057
   1153 H          -1.9549    2.4687    1.0725 H     1    ESP        -0.0029
   1154 H          -2.4146    2.4687    1.0725 H     1    ESP        -0.0077
   1155 H          -2.8664    2.3843    1.0725 H     1    ESP        -0.0106
   1156 H          -3.2951    2.2182    1.0725 H     1    ESP        -0.0118
   1157 H          -3.6859    1.9762    1.0725 H     1    ESP        -0.0118
   1158 H          -4.0256    1.6666    1.0725 H     1    ESP        -0.0109
   1159 H          -4.3026    1.2997    1.0725 H     1    ESP        -0.0096
   1160 H          -4.5075    0.8883    1.0725 H     1    ESP        -0.0084
   1161 H          -4.6333    0.4462    1.0725 H     1    ESP        -0.0074
   1162 H          -4.6757   -0.0115    1.0725 H     1    ESP        -0.0071
   1163 H          -4.6333   -0.4692    1.0725 H     1    ESP        -0.0074
   1164 H          -4.5075   -0.9114    1.0725 H     1    ESP        -0.0083
   1165 H          -4.3026   -1.3228    1.0725 H     1    ESP        -0.0095
   1166 H          -4.0256   -1.6897    1.0725 H     1    ESP        -0.0108
   1167 H          -3.6859   -1.9993    1.0725 H     1    ESP        -0.0117
   1168 H          -3.2951   -2.2413    1.0725 H     1    ESP        -0.0118
   1169 H          -2.8664   -2.4074    1.0725 H     1    ESP        -0.0107
   1170 H          -2.4146   -2.4918    1.0725 H     1    ESP        -0.0079
   1171 H          -1.9549   -2.4918    1.0725 H     1    ESP        -0.0032
   1172 H          -2.1848    2.6252    0.6476 H     1    ESP        -0.0031
   1173 H          -2.6426    2.5852    0.6476 H     1    ESP        -0.0080
   1174 H          -3.0866    2.4662    0.6476 H     1    ESP        -0.0105
   1175 H          -3.5031    2.2720    0.6476 H     1    ESP        -0.0113
   1176 H          -3.8796    2.0083    0.6476 H     1    ESP        -0.0109
   1177 H          -4.2046    1.6833    0.6476 H     1    ESP        -0.0098
   1178 H          -4.4683    1.3068    0.6476 H     1    ESP        -0.0083
   1179 H          -4.6625    0.8903    0.6476 H     1    ESP        -0.0070
   1180 H          -4.7815    0.4463    0.6476 H     1    ESP        -0.0060
   1181 H          -4.8215   -0.0115    0.6476 H     1    ESP        -0.0056
   1182 H          -4.7815   -0.4694    0.6476 H     1    ESP        -0.0059
   1183 H          -4.6625   -0.9134    0.6476 H     1    ESP        -0.0069
   1184 H          -4.4683   -1.3299    0.6476 H     1    ESP        -0.0082
   1185 H          -4.2046   -1.7064    0.6476 H     1    ESP        -0.0097
   1186 H          -3.8796   -2.0314    0.6476 H     1    ESP        -0.0109
   1187 H          -3.5031   -2.2951    0.6476 H     1    ESP        -0.0114
   1188 H          -3.0866   -2.4893    0.6476 H     1    ESP        -0.0106
   1189 H          -2.6426   -2.6083    0.6476 H     1    ESP        -0.0082
   1190 H          -2.1848   -2.6483    0.6476 H     1    ESP        -0.0035
   1191 H          -2.5291    2.6772    0.2045 H     1    ESP        -0.0061
   1192 H          -2.9785    2.5803    0.2045 H     1    ESP        -0.0096
   1193 H          -3.4051    2.4089    0.2045 H     1    ESP        -0.0109
   1194 H          -3.7966    2.1679    0.2045 H     1    ESP        -0.0109
   1195 H          -4.1418    1.8641    0.2045 H     1    ESP        -0.0099
   1196 H          -4.4306    1.5064    0.2045 H     1    ESP        -0.0084
   1197 H          -4.6548    1.1050    0.2045 H     1    ESP        -0.0069
   1198 H          -4.8080    0.6715    0.2045 H     1    ESP        -0.0056
   1199 H          -4.8857    0.2183    0.2045 H     1    ESP        -0.0049
   1200 H          -4.8857   -0.2414    0.2045 H     1    ESP        -0.0049
   1201 H          -4.8080   -0.6946    0.2045 H     1    ESP        -0.0055
   1202 H          -4.6548   -1.1281    0.2045 H     1    ESP        -0.0068
   1203 H          -4.4306   -1.5295    0.2045 H     1    ESP        -0.0083
   1204 H          -4.1418   -1.8872    0.2045 H     1    ESP        -0.0098
   1205 H          -3.7966   -2.1910    0.2045 H     1    ESP        -0.0108
   1206 H          -3.4051   -2.4320    0.2045 H     1    ESP        -0.0110
   1207 H          -2.9785   -2.6034    0.2045 H     1    ESP        -0.0097
   1208 H          -2.5291   -2.7003    0.2045 H     1    ESP        -0.0064
   1209 H          -2.5291    2.6772   -0.2447 H     1    ESP        -0.0062
   1210 H          -2.9785    2.5803   -0.2447 H     1    ESP        -0.0096
   1211 H          -3.4051    2.4089   -0.2447 H     1    ESP        -0.0109
   1212 H          -3.7966    2.1679   -0.2447 H     1    ESP        -0.0108
   1213 H          -4.1418    1.8641   -0.2447 H     1    ESP        -0.0098
   1214 H          -4.4306    1.5064   -0.2447 H     1    ESP        -0.0083
   1215 H          -4.6548    1.1050   -0.2447 H     1    ESP        -0.0068
   1216 H          -4.8080    0.6715   -0.2447 H     1    ESP        -0.0056
   1217 H          -4.8857    0.2183   -0.2447 H     1    ESP        -0.0049
   1218 H          -4.8857   -0.2414   -0.2447 H     1    ESP        -0.0048
   1219 H          -4.8080   -0.6946   -0.2447 H     1    ESP        -0.0055
   1220 H          -4.6548   -1.1281   -0.2447 H     1    ESP        -0.0067
   1221 H          -4.4306   -1.5295   -0.2447 H     1    ESP        -0.0083
   1222 H          -4.1418   -1.8872   -0.2447 H     1    ESP        -0.0097
   1223 H          -3.7966   -2.1910   -0.2447 H     1    ESP        -0.0108
   1224 H          -3.4051   -2.4320   -0.2447 H     1    ESP        -0.0110
   1225 H          -2.9785   -2.6034   -0.2447 H     1    ESP        -0.0097
   1226 H          -2.5291   -2.7003   -0.2447 H     1    ESP        -0.0064
   1227 H          -2.1848    2.6252   -0.6878 H     1    ESP        -0.0032
   1228 H          -2.6426    2.5852   -0.6878 H     1    ESP        -0.0081
   1229 H          -3.0866    2.4662   -0.6878 H     1    ESP        -0.0106
   1230 H          -3.5031    2.2720   -0.6878 H     1    ESP        -0.0113
   1231 H          -3.8796    2.0083   -0.6878 H     1    ESP        -0.0109
   1232 H          -4.2046    1.6833   -0.6878 H     1    ESP        -0.0097
   1233 H          -4.4683    1.3068   -0.6878 H     1    ESP        -0.0082
   1234 H          -4.6625    0.8903   -0.6878 H     1    ESP        -0.0068
   1235 H          -4.7815    0.4463   -0.6878 H     1    ESP        -0.0059
   1236 H          -4.8215   -0.0115   -0.6878 H     1    ESP        -0.0055
   1237 H          -4.7815   -0.4694   -0.6878 H     1    ESP        -0.0058
   1238 H          -4.6625   -0.9134   -0.6878 H     1    ESP        -0.0068
   1239 H          -4.4683   -1.3299   -0.6878 H     1    ESP        -0.0081
   1240 H          -4.2046   -1.7064   -0.6878 H     1    ESP        -0.0096
   1241 H          -3.8796   -2.0314   -0.6878 H     1    ESP        -0.0108
   1242 H          -3.5031   -2.2951   -0.6878 H     1    ESP        -0.0113
   1243 H          -3.0866   -2.4893   -0.6878 H     1    ESP        -0.0106
   1244 H          -2.6426   -2.6083   -0.6878 H     1    ESP        -0.0083
   1245 H          -2.1848   -2.6483   -0.6878 H     1    ESP        -0.0036
   1246 H          -1.9549    2.4687   -1.1127 H     1    ESP        -0.0032
   1247 H          -2.4146    2.4687   -1.1127 H     1    ESP        -0.0079
   1248 H          -2.8664    2.3843   -1.1127 H     1    ESP        -0.0106
   1249 H          -3.2951    2.2182   -1.1127 H     1    ESP        -0.0118
   1250 H          -3.6859    1.9762   -1.1127 H     1    ESP        -0.0117
   1251 H          -4.0256    1.6666   -1.1127 H     1    ESP        -0.0108
   1252 H          -4.3026    1.2997   -1.1127 H     1    ESP        -0.0095
   1253 H          -4.5075    0.8883   -1.1127 H     1    ESP        -0.0082
   1254 H          -4.6333    0.4462   -1.1127 H     1    ESP        -0.0072
   1255 H          -4.6757   -0.0115   -1.1127 H     1    ESP        -0.0069
   1256 H          -4.6333   -0.4692   -1.1127 H     1    ESP        -0.0072
   1257 H          -4.5075   -0.9114   -1.1127 H     1    ESP        -0.0081
   1258 H          -4.3026   -1.3228   -1.1127 H     1    ESP        -0.0094
   1259 H          -4.0256   -1.6897   -1.1127 H     1    ESP        -0.0107
   1260 H          -3.6859   -1.9993   -1.1127 H     1    ESP        -0.0117
   1261 H          -3.2951   -2.2413   -1.1127 H     1    ESP        -0.0118
   1262 H          -2.8664   -2.4074   -1.1127 H     1    ESP        -0.0107
   1263 H          -2.4146   -2.4918   -1.1127 H     1    ESP        -0.0081
   1264 H          -1.9549   -2.4918   -1.1127 H     1    ESP        -0.0035
   1265 H          -1.8399    2.2393   -1.5078 H     1    ESP        -0.0058
   1266 H          -2.3001    2.2626   -1.5078 H     1    ESP        -0.0092
   1267 H          -2.7555    2.1929   -1.5078 H     1    ESP        -0.0115
   1268 H          -3.1876    2.0328   -1.5078 H     1    ESP        -0.0125
   1269 H          -3.5786    1.7891   -1.5078 H     1    ESP        -0.0125
   1270 H          -3.9125    1.4717   -1.5078 H     1    ESP        -0.0117
   1271 H          -4.1757    1.0935   -1.5078 H     1    ESP        -0.0105
   1272 H          -4.3574    0.6701   -1.5078 H     1    ESP        -0.0095
   1273 H          -4.4502    0.2188   -1.5078 H     1    ESP        -0.0089
   1274 H          -4.4502   -0.2419   -1.5078 H     1    ESP        -0.0088
   1275 H          -4.3574   -0.6932   -1.5078 H     1    ESP        -0.0094
   1276 H          -4.1757   -1.1166   -1.5078 H     1    ESP        -0.0105
   1277 H          -3.9125   -1.4948   -1.5078 H     1    ESP        -0.0116
   1278 H          -3.5786   -1.8122   -1.5078 H     1    ESP        -0.0125
   1279 H          -3.1876   -2.0559   -1.5078 H     1    ESP        -0.0126
   1280 H          -2.7555   -2.2159   -1.5078 H     1    ESP        -0.0116
   1281 H          -2.3001   -2.2857   -1.5078 H     1    ESP        -0.0093
   1282 H          -1.8399   -2.2624   -1.5078 H     1    ESP        -0.0059
   1283 H          -1.3921    1.8260   -1.8623 H     1    ESP        -0.0072
   1284 H          -1.8373    1.9592   -1.8623 H     1    ESP        -0.0090
   1285 H          -2.3011    1.9862   -1.8623 H     1    ESP        -0.0112
   1286 H          -2.7587    1.9056   -1.8623 H     1    ESP        -0.0129
   1287 H          -3.1853    1.7215   -1.8623 H     1    ESP        -0.0135
   1288 H          -3.5580    1.4441   -1.8623 H     1    ESP        -0.0132
   1289 H          -3.8567    1.0881   -1.8623 H     1    ESP        -0.0124
   1290 H          -4.0652    0.6729   -1.8623 H     1    ESP        -0.0115
   1291 H          -4.1724    0.2208   -1.8623 H     1    ESP        -0.0109
   1292 H          -4.1724   -0.2439   -1.8623 H     1    ESP        -0.0109
   1293 H          -4.0652   -0.6960   -1.8623 H     1    ESP        -0.0115
   1294 H          -3.8567   -1.1112   -1.8623 H     1    ESP        -0.0123
   1295 H          -3.5580   -1.4671   -1.8623 H     1    ESP        -0.0132
   1296 H          -3.1853   -1.7446   -1.8623 H     1    ESP        -0.0135
   1297 H          -2.7587   -1.9286   -1.8623 H     1    ESP        -0.0129
   1298 H          -2.3011   -2.0093   -1.8623 H     1    ESP        -0.0113
   1299 H          -1.8373   -1.9823   -1.8623 H     1    ESP        -0.0091
   1300 H          -1.3921   -1.8491   -1.8623 H     1    ESP        -0.0072
   1301 H          -1.0444    1.2094   -2.1666 H     1    ESP        -0.0107
   1302 H          -1.4161    1.4718   -2.1666 H     1    ESP        -0.0104
   1303 H          -1.8449    1.6242   -2.1666 H     1    ESP        -0.0114
   1304 H          -2.2988    1.6552   -2.1666 H     1    ESP        -0.0129
   1305 H          -2.7442    1.5626   -2.1666 H     1    ESP        -0.0140
   1306 H          -3.1482    1.3533   -2.1666 H     1    ESP        -0.0143
   1307 H          -3.4807    1.0428   -2.1666 H     1    ESP        -0.0140
   1308 H          -3.7171    0.6540   -2.1666 H     1    ESP        -0.0134
   1309 H          -3.8399    0.2159   -2.1666 H     1    ESP        -0.0129
   1310 H          -3.8399   -0.2390   -2.1666 H     1    ESP        -0.0129
   1311 H          -3.7171   -0.6771   -2.1666 H     1    ESP        -0.0134
   1312 H          -3.4807   -1.0659   -2.1666 H     1    ESP        -0.0140
   1313 H          -3.1482   -1.3764   -2.1666 H     1    ESP        -0.0143
   1314 H          -2.7442   -1.5857   -2.1666 H     1    ESP        -0.0140
   1315 H          -2.2988   -1.6783   -2.1666 H     1    ESP        -0.0130
   1316 H          -1.8449   -1.6473   -2.1666 H     1    ESP        -0.0115
   1317 H          -1.4161   -1.4949   -2.1666 H     1    ESP        -0.0104
   1318 H          -1.0444   -1.2325   -2.1666 H     1    ESP        -0.0107
   1319 H          -0.8902   -0.0115   -2.4123 H     1    ESP        -0.0134
   1320 H          -0.9683    0.4312   -2.4123 H     1    ESP        -0.0131
   1321 H          -1.1931    0.8206   -2.4123 H     1    ESP        -0.0126
   1322 H          -1.5375    1.1096   -2.4123 H     1    ESP        -0.0126
   1323 H          -1.9600    1.2634   -2.4123 H     1    ESP        -0.0134
   1324 H          -2.4096    1.2634   -2.4123 H     1    ESP        -0.0144
   1325 H          -2.8320    1.1096   -2.4123 H     1    ESP        -0.0150
   1326 H          -3.1765    0.8206   -2.4123 H     1    ESP        -0.0150
   1327 H          -3.4013    0.4312   -2.4123 H     1    ESP        -0.0147
   1328 H          -3.4793   -0.0115   -2.4123 H     1    ESP        -0.0145
   1329 H          -3.4013   -0.4543   -2.4123 H     1    ESP        -0.0147
   1330 H          -3.1765   -0.8437   -2.4123 H     1    ESP        -0.0150
   1331 H          -2.8320   -1.1327   -2.4123 H     1    ESP        -0.0150
   1332 H          -2.4096   -1.2865   -2.4123 H     1    ESP        -0.0144
   1333 H          -1.9600   -1.2865   -2.4123 H     1    ESP        -0.0134
   1334 H          -1.5375   -1.1327   -2.4123 H     1    ESP        -0.0126
   1335 H          -1.1931   -0.8437   -2.4123 H     1    ESP        -0.0126
   1336 H          -0.9683   -0.4543   -2.4123 H     1    ESP        -0.0131
   1337 H          -1.3016   -0.0115   -2.5927 H     1    ESP        -0.0138
   1338 H          -1.4199    0.4300   -2.5927 H     1    ESP        -0.0138
   1339 H          -1.7432    0.7533   -2.5927 H     1    ESP        -0.0141
   1340 H          -2.1848    0.8716   -2.5927 H     1    ESP        -0.0149
   1341 H          -2.6264    0.7533   -2.5927 H     1    ESP        -0.0155
   1342 H          -2.9496    0.4300   -2.5927 H     1    ESP        -0.0156
   1343 H          -3.0679   -0.0115   -2.5927 H     1    ESP        -0.0156
   1344 H          -2.9496   -0.4531   -2.5927 H     1    ESP        -0.0156
   1345 H          -2.6264   -0.7764   -2.5927 H     1    ESP        -0.0155
   1346 H          -2.1848   -0.8947   -2.5927 H     1    ESP        -0.0149
   1347 H          -1.7432   -0.7764   -2.5927 H     1    ESP        -0.0141
   1348 H          -1.4199   -0.4531   -2.5927 H     1    ESP        -0.0138
   1349 H          -1.7371   -0.0115   -2.7030 H     1    ESP        -0.0147
   1350 H          -1.9609    0.3762   -2.7030 H     1    ESP        -0.0151
   1351 H          -2.4086    0.3762   -2.7030 H     1    ESP        -0.0157
   1352 H          -2.6325   -0.0115   -2.7030 H     1    ESP        -0.0159
   1353 H          -2.4086   -0.3993   -2.7030 H     1    ESP        -0.0157
   1354 H          -1.9609   -0.3993   -2.7030 H     1    ESP        -0.0151
   1355 H          -2.1848   -0.0115   -2.7401 H     1    ESP        -0.0156
   1356 H          -0.5138   -2.5483    1.8607 H     1    ESP         0.0002
   1357 H          -1.1763   -2.1503    1.6966 H     1    ESP        -0.0026
   1358 H          -1.0568   -2.5965    1.6966 H     1    ESP         0.0009
   1359 H          -0.7302   -2.9231    1.6966 H     1    ESP         0.0035
   1360 H          -0.2840   -3.0426    1.6966 H     1    ESP         0.0045
   1361 H           0.1621   -2.9231    1.6966 H     1    ESP         0.0037
   1362 H          -1.5355   -2.3843    1.4336 H     1    ESP        -0.0014
   1363 H          -1.3665   -2.8206    1.4336 H     1    ESP         0.0026
   1364 H          -1.0513   -3.1664    1.4336 H     1    ESP         0.0055
   1365 H          -0.6325   -3.3749    1.4336 H     1    ESP         0.0072
   1366 H          -0.1666   -3.4181    1.4336 H     1    ESP         0.0080
   1367 H           0.2835   -3.2900    1.4336 H     1    ESP         0.0078
   1368 H          -1.7077   -2.8359    1.0872 H     1    ESP         0.0021
   1369 H          -1.4423   -3.2251    1.0872 H     1    ESP         0.0057
   1370 H          -1.0741   -3.5188    1.0872 H     1    ESP         0.0082
   1371 H          -0.6356   -3.6908    1.0872 H     1    ESP         0.0097
   1372 H          -0.1659   -3.7260    1.0872 H     1    ESP         0.0106
   1373 H           0.2933   -3.6212    1.0872 H     1    ESP         0.0111
   1374 H           0.7012   -3.3857    1.0872 H     1    ESP         0.0115
   1375 H          -1.8387   -3.0479    0.6773 H     1    ESP         0.0036
   1376 H          -1.5535   -3.4197    0.6773 H     1    ESP         0.0071
   1377 H          -1.1816   -3.7050    0.6773 H     1    ESP         0.0095
   1378 H          -0.7487   -3.8844    0.6773 H     1    ESP         0.0111
   1379 H          -0.2840   -3.9456    0.6773 H     1    ESP         0.0122
   1380 H           0.1806   -3.8844    0.6773 H     1    ESP         0.0130
   1381 H           0.6136   -3.7050    0.6773 H     1    ESP         0.0141
   1382 H          -2.0562   -2.8520    0.2279 H     1    ESP         0.0010
   1383 H          -1.8260   -3.2706    0.2279 H     1    ESP         0.0056
   1384 H          -1.4990   -3.6189    0.2279 H     1    ESP         0.0087
   1385 H          -1.0956   -3.8749    0.2279 H     1    ESP         0.0108
   1386 H          -0.6412   -4.0226    0.2279 H     1    ESP         0.0122
   1387 H          -0.1644   -4.0526    0.2279 H     1    ESP         0.0133
   1388 H           0.3050   -3.9630    0.2279 H     1    ESP         0.0143
   1389 H           0.7373   -3.7596    0.2279 H     1    ESP         0.0160
   1390 H          -2.0562   -2.8520   -0.2349 H     1    ESP         0.0010
   1391 H          -1.8260   -3.2706   -0.2349 H     1    ESP         0.0056
   1392 H          -1.4990   -3.6189   -0.2349 H     1    ESP         0.0087
   1393 H          -1.0956   -3.8749   -0.2349 H     1    ESP         0.0108
   1394 H          -0.6412   -4.0226   -0.2349 H     1    ESP         0.0122
   1395 H          -0.1644   -4.0526   -0.2349 H     1    ESP         0.0133
   1396 H           0.3050   -3.9630   -0.2349 H     1    ESP         0.0143
   1397 H           0.7373   -3.7596   -0.2349 H     1    ESP         0.0159
   1398 H          -1.8387   -3.0479   -0.6843 H     1    ESP         0.0036
   1399 H          -1.5535   -3.4197   -0.6843 H     1    ESP         0.0071
   1400 H          -1.1816   -3.7050   -0.6843 H     1    ESP         0.0095
   1401 H          -0.7487   -3.8844   -0.6843 H     1    ESP         0.0111
   1402 H          -0.2840   -3.9456   -0.6843 H     1    ESP         0.0121
   1403 H           0.1806   -3.8844   -0.6843 H     1    ESP         0.0130
   1404 H           0.6136   -3.7050   -0.6843 H     1    ESP         0.0140
   1405 H          -1.7077   -2.8359   -1.0942 H     1    ESP         0.0021
   1406 H          -1.4423   -3.2251   -1.0942 H     1    ESP         0.0057
   1407 H          -1.0741   -3.5188   -1.0942 H     1    ESP         0.0082
   1408 H          -0.6356   -3.6908   -1.0942 H     1    ESP         0.0097
   1409 H          -0.1659   -3.7260   -1.0942 H     1    ESP         0.0106
   1410 H           0.2933   -3.6212   -1.0942 H     1    ESP         0.0110
   1411 H           0.7012   -3.3857   -1.0942 H     1    ESP         0.0113
   1412 H          -1.5355   -2.3843   -1.4406 H     1    ESP        -0.0014
   1413 H          -1.3665   -2.8206   -1.4406 H     1    ESP         0.0025
   1414 H          -1.0513   -3.1664   -1.4406 H     1    ESP         0.0055
   1415 H          -0.6325   -3.3749   -1.4406 H     1    ESP         0.0072
   1416 H          -0.1666   -3.4181   -1.4406 H     1    ESP         0.0079
   1417 H           0.2835   -3.2900   -1.4406 H     1    ESP         0.0077
   1418 H          -1.1763   -2.1503   -1.7036 H     1    ESP        -0.0026
   1419 H          -1.0568   -2.5965   -1.7036 H     1    ESP         0.0009
   1420 H          -0.7302   -2.9231   -1.7036 H     1    ESP         0.0035
   1421 H          -0.2840   -3.0426   -1.7036 H     1    ESP         0.0045
   1422 H           0.1621   -2.9231   -1.7036 H     1    ESP         0.0037
   1423 H          -0.5138   -2.5483   -1.8677 H     1    ESP         0.0003
   1424 H           2.4335   -2.5382    1.8831 H     1    ESP         0.0040
   1425 H           3.0960   -2.1402    1.7189 H     1    ESP         0.0057
   1426 H           1.7576   -2.9130    1.7189 H     1    ESP         0.0052
   1427 H           2.2037   -3.0325    1.7189 H     1    ESP         0.0072
   1428 H           2.6499   -2.9130    1.7189 H     1    ESP         0.0079
   1429 H           2.9765   -2.5864    1.7189 H     1    ESP         0.0075
   1430 H           3.4769   -2.1402    1.4560 H     1    ESP         0.0092
   1431 H           1.4365   -3.1563    1.4560 H     1    ESP         0.0080
   1432 H           1.8553   -3.3648    1.4560 H     1    ESP         0.0095
   1433 H           2.3212   -3.4080    1.4560 H     1    ESP         0.0105
   1434 H           2.7713   -3.2800    1.4560 H     1    ESP         0.0110
   1435 H           3.1446   -2.9980    1.4560 H     1    ESP         0.0109
   1436 H           3.3910   -2.6002    1.4560 H     1    ESP         0.0104
   1437 H           3.7839   -2.1402    1.1095 H     1    ESP         0.0124
   1438 H           1.4137   -3.5087    1.1095 H     1    ESP         0.0118
   1439 H           1.8521   -3.6808    1.1095 H     1    ESP         0.0123
   1440 H           2.3218   -3.7160    1.1095 H     1    ESP         0.0128
   1441 H           2.7810   -3.6111    1.1095 H     1    ESP         0.0132
   1442 H           3.1889   -3.3756    1.1095 H     1    ESP         0.0133
   1443 H           3.5093   -3.0304    1.1095 H     1    ESP         0.0132
   1444 H           3.7137   -2.6060    1.1095 H     1    ESP         0.0128
   1445 H           3.9990   -2.1402    0.6997 H     1    ESP         0.0150
   1446 H           1.3061   -3.6950    0.6997 H     1    ESP         0.0144
   1447 H           1.7391   -3.8743    0.6997 H     1    ESP         0.0141
   1448 H           2.2037   -3.9355    0.6997 H     1    ESP         0.0143
   1449 H           2.6684   -3.8743    0.6997 H     1    ESP         0.0146
   1450 H           3.1014   -3.6950    0.6997 H     1    ESP         0.0148
   1451 H           3.4732   -3.4097    0.6997 H     1    ESP         0.0148
   1452 H           3.7585   -3.0379    0.6997 H     1    ESP         0.0147
   1453 H           3.9378   -2.6049    0.6997 H     1    ESP         0.0147
   1454 H           4.1097   -2.1402    0.2503 H     1    ESP         0.0164
   1455 H           0.9888   -3.6088    0.2503 H     1    ESP         0.0175
   1456 H           1.3922   -3.8648    0.2503 H     1    ESP         0.0155
   1457 H           1.8466   -4.0125    0.2503 H     1    ESP         0.0151
   1458 H           2.3234   -4.0425    0.2503 H     1    ESP         0.0151
   1459 H           2.7927   -3.9530    0.2503 H     1    ESP         0.0154
   1460 H           3.2250   -3.7495    0.2503 H     1    ESP         0.0155
   1461 H           3.5932   -3.4450    0.2503 H     1    ESP         0.0155
   1462 H           3.8740   -3.0585    0.2503 H     1    ESP         0.0155
   1463 H           4.0499   -2.6142    0.2503 H     1    ESP         0.0156
   1464 H           4.1097   -2.1402   -0.2126 H     1    ESP         0.0163
   1465 H           0.9888   -3.6088   -0.2126 H     1    ESP         0.0175
   1466 H           1.3922   -3.8648   -0.2126 H     1    ESP         0.0155
   1467 H           1.8466   -4.0125   -0.2126 H     1    ESP         0.0151
   1468 H           2.3234   -4.0425   -0.2126 H     1    ESP         0.0151
   1469 H           2.7927   -3.9530   -0.2126 H     1    ESP         0.0154
   1470 H           3.2250   -3.7495   -0.2126 H     1    ESP         0.0155
   1471 H           3.5932   -3.4450   -0.2126 H     1    ESP         0.0155
   1472 H           3.8740   -3.0585   -0.2126 H     1    ESP         0.0155
   1473 H           4.0499   -2.6142   -0.2126 H     1    ESP         0.0156
   1474 H           3.9990   -2.1402   -0.6620 H     1    ESP         0.0148
   1475 H           1.3061   -3.6950   -0.6620 H     1    ESP         0.0145
   1476 H           1.7391   -3.8743   -0.6620 H     1    ESP         0.0141
   1477 H           2.2037   -3.9355   -0.6620 H     1    ESP         0.0143
   1478 H           2.6684   -3.8743   -0.6620 H     1    ESP         0.0146
   1479 H           3.1014   -3.6950   -0.6620 H     1    ESP         0.0147
   1480 H           3.4732   -3.4097   -0.6620 H     1    ESP         0.0147
   1481 H           3.7585   -3.0379   -0.6620 H     1    ESP         0.0146
   1482 H           3.9378   -2.6049   -0.6620 H     1    ESP         0.0146
   1483 H           3.7839   -2.1402   -1.0718 H     1    ESP         0.0122
   1484 H           1.4137   -3.5087   -1.0718 H     1    ESP         0.0119
   1485 H           1.8521   -3.6808   -1.0718 H     1    ESP         0.0123
   1486 H           2.3218   -3.7160   -1.0718 H     1    ESP         0.0128
   1487 H           2.7810   -3.6111   -1.0718 H     1    ESP         0.0131
   1488 H           3.1889   -3.3756   -1.0718 H     1    ESP         0.0132
   1489 H           3.5093   -3.0304   -1.0718 H     1    ESP         0.0130
   1490 H           3.7137   -2.6060   -1.0718 H     1    ESP         0.0127
   1491 H           3.4769   -2.1402   -1.4183 H     1    ESP         0.0089
   1492 H           1.4365   -3.1563   -1.4183 H     1    ESP         0.0081
   1493 H           1.8553   -3.3648   -1.4183 H     1    ESP         0.0095
   1494 H           2.3212   -3.4080   -1.4183 H     1    ESP         0.0105
   1495 H           2.7713   -3.2800   -1.4183 H     1    ESP         0.0109
   1496 H           3.1446   -2.9980   -1.4183 H     1    ESP         0.0108
   1497 H           3.3910   -2.6002   -1.4183 H     1    ESP         0.0102
   1498 H           3.0960   -2.1402   -1.6812 H     1    ESP         0.0054
   1499 H           1.7576   -2.9130   -1.6812 H     1    ESP         0.0052
   1500 H           2.2037   -3.0325   -1.6812 H     1    ESP         0.0071
   1501 H           2.6499   -2.9130   -1.6812 H     1    ESP         0.0078
   1502 H           2.9765   -2.5864   -1.6812 H     1    ESP         0.0073
   1503 H           2.4335   -2.5382   -1.8453 H     1    ESP         0.0039
   1504 H           3.9008    0.0182    1.8952 H     1    ESP         0.0039
   1505 H           4.3336    0.0182    1.7310 H     1    ESP         0.0080
   1506 H           4.2141    0.4643    1.7310 H     1    ESP         0.0074
   1507 H           3.8875    0.7909    1.7310 H     1    ESP         0.0055
   1508 H           3.8875   -0.7545    1.7310 H     1    ESP         0.0054
   1509 H           4.2141   -0.4279    1.7310 H     1    ESP         0.0073
   1510 H           4.7145    0.0182    1.4681 H     1    ESP         0.0111
   1511 H           4.6286    0.4781    1.4681 H     1    ESP         0.0108
   1512 H           4.3822    0.8759    1.4681 H     1    ESP         0.0101
   1513 H           4.0089    1.1579    1.4681 H     1    ESP         0.0087
   1514 H           4.0089   -1.1215    1.4681 H     1    ESP         0.0087
   1515 H           4.3822   -0.8395    1.4681 H     1    ESP         0.0100
   1516 H           4.6286   -0.4417    1.4681 H     1    ESP         0.0108
   1517 H           5.0215    0.0182    1.1217 H     1    ESP         0.0133
   1518 H           4.9513    0.4840    1.1217 H     1    ESP         0.0132
   1519 H           4.7469    0.9083    1.1217 H     1    ESP         0.0129
   1520 H           4.4265    1.2536    1.1217 H     1    ESP         0.0125
   1521 H           4.0186    1.4891    1.1217 H     1    ESP         0.0121
   1522 H           4.0186   -1.4527    1.1217 H     1    ESP         0.0121
   1523 H           4.4265   -1.2172    1.1217 H     1    ESP         0.0124
   1524 H           4.7469   -0.8719    1.1217 H     1    ESP         0.0129
   1525 H           4.9513   -0.4476    1.1217 H     1    ESP         0.0132
   1526 H           5.2366    0.0182    0.7118 H     1    ESP         0.0148
   1527 H           5.1754    0.4828    0.7118 H     1    ESP         0.0148
   1528 H           4.9961    0.9158    0.7118 H     1    ESP         0.0146
   1529 H           4.7108    1.2876    0.7118 H     1    ESP         0.0145
   1530 H           4.3390    1.5729    0.7118 H     1    ESP         0.0148
   1531 H           4.3390   -1.5365    0.7118 H     1    ESP         0.0148
   1532 H           4.7108   -1.2512    0.7118 H     1    ESP         0.0145
   1533 H           4.9961   -0.8794    0.7118 H     1    ESP         0.0146
   1534 H           5.1754   -0.4464    0.7118 H     1    ESP         0.0148
   1535 H           5.3473    0.0182    0.2624 H     1    ESP         0.0156
   1536 H           5.2875    0.4922    0.2624 H     1    ESP         0.0155
   1537 H           5.1116    0.9364    0.2624 H     1    ESP         0.0154
   1538 H           4.8308    1.3229    0.2624 H     1    ESP         0.0154
   1539 H           4.4626    1.6275    0.2624 H     1    ESP         0.0160
   1540 H           4.4626   -1.5911    0.2624 H     1    ESP         0.0161
   1541 H           4.8308   -1.2865    0.2624 H     1    ESP         0.0154
   1542 H           5.1116   -0.9000    0.2624 H     1    ESP         0.0154
   1543 H           5.2875   -0.4558    0.2624 H     1    ESP         0.0155
   1544 H           5.3473    0.0182   -0.2005 H     1    ESP         0.0155
   1545 H           5.2875    0.4922   -0.2005 H     1    ESP         0.0155
   1546 H           5.1116    0.9364   -0.2005 H     1    ESP         0.0154
   1547 H           4.8308    1.3229   -0.2005 H     1    ESP         0.0154
   1548 H           4.4626    1.6275   -0.2005 H     1    ESP         0.0160
   1549 H           4.4626   -1.5911   -0.2005 H     1    ESP         0.0161
   1550 H           4.8308   -1.2865   -0.2005 H     1    ESP         0.0154
   1551 H           5.1116   -0.9000   -0.2005 H     1    ESP         0.0154
   1552 H           5.2875   -0.4558   -0.2005 H     1    ESP         0.0155
   1553 H           5.2366    0.0182   -0.6499 H     1    ESP         0.0147
   1554 H           5.1754    0.4828   -0.6499 H     1    ESP         0.0147
   1555 H           4.9961    0.9158   -0.6499 H     1    ESP         0.0145
   1556 H           4.7108    1.2876   -0.6499 H     1    ESP         0.0144
   1557 H           4.3390    1.5729   -0.6499 H     1    ESP         0.0148
   1558 H           4.3390   -1.5365   -0.6499 H     1    ESP         0.0148
   1559 H           4.7108   -1.2512   -0.6499 H     1    ESP         0.0144
   1560 H           4.9961   -0.8794   -0.6499 H     1    ESP         0.0145
   1561 H           5.1754   -0.4464   -0.6499 H     1    ESP         0.0147
   1562 H           5.0215    0.0182   -1.0597 H     1    ESP         0.0132
   1563 H           4.9513    0.4840   -1.0597 H     1    ESP         0.0131
   1564 H           4.7469    0.9083   -1.0597 H     1    ESP         0.0127
   1565 H           4.4265    1.2536   -1.0597 H     1    ESP         0.0123
   1566 H           4.0186    1.4891   -1.0597 H     1    ESP         0.0120
   1567 H           4.0186   -1.4527   -1.0597 H     1    ESP         0.0120
   1568 H           4.4265   -1.2172   -1.0597 H     1    ESP         0.0123
   1569 H           4.7469   -0.8719   -1.0597 H     1    ESP         0.0127
   1570 H           4.9513   -0.4476   -1.0597 H     1    ESP         0.0131
   1571 H           4.7145    0.0182   -1.4062 H     1    ESP         0.0109
   1572 H           4.6286    0.4781   -1.4062 H     1    ESP         0.0106
   1573 H           4.3822    0.8759   -1.4062 H     1    ESP         0.0099
   1574 H           4.0089    1.1579   -1.4062 H     1    ESP         0.0085
   1575 H           4.0089   -1.1215   -1.4062 H     1    ESP         0.0085
   1576 H           4.3822   -0.8395   -1.4062 H     1    ESP         0.0098
   1577 H           4.6286   -0.4417   -1.4062 H     1    ESP         0.0106
   1578 H           4.3336    0.0182   -1.6691 H     1    ESP         0.0077
   1579 H           4.2141    0.4643   -1.6691 H     1    ESP         0.0071
   1580 H           3.8875    0.7909   -1.6691 H     1    ESP         0.0052
   1581 H           3.8875   -0.7545   -1.6691 H     1    ESP         0.0051
   1582 H           4.2141   -0.4279   -1.6691 H     1    ESP         0.0071
   1583 H           3.9008    0.0182   -1.8332 H     1    ESP         0.0036
   1584 H           2.4107    2.5613    1.8850 H     1    ESP         0.0040
   1585 H           3.0732    2.1634    1.7208 H     1    ESP         0.0056
   1586 H           2.9537    2.6096    1.7208 H     1    ESP         0.0075
   1587 H           2.6271    2.9361    1.7208 H     1    ESP         0.0080
   1588 H           2.1810    3.0557    1.7208 H     1    ESP         0.0072
   1589 H           1.7348    2.9361    1.7208 H     1    ESP         0.0052
   1590 H           3.4542    2.1634    1.4579 H     1    ESP         0.0091
   1591 H           3.3682    2.6233    1.4579 H     1    ESP         0.0103
   1592 H           3.1219    3.0212    1.4579 H     1    ESP         0.0109
   1593 H           2.7485    3.3031    1.4579 H     1    ESP         0.0110
   1594 H           2.2985    3.4312    1.4579 H     1    ESP         0.0105
   1595 H           1.8326    3.3880    1.4579 H     1    ESP         0.0096
   1596 H           1.4137    3.1794    1.4579 H     1    ESP         0.0080
   1597 H           3.7611    2.1634    1.1114 H     1    ESP         0.0124
   1598 H           3.6909    2.6292    1.1114 H     1    ESP         0.0128
   1599 H           3.4865    3.0535    1.1114 H     1    ESP         0.0131
   1600 H           3.1662    3.3988    1.1114 H     1    ESP         0.0133
   1601 H           2.7583    3.6343    1.1114 H     1    ESP         0.0132
   1602 H           2.2991    3.7391    1.1114 H     1    ESP         0.0128
   1603 H           1.8294    3.7039    1.1114 H     1    ESP         0.0123
   1604 H           1.3909    3.5318    1.1114 H     1    ESP         0.0118
   1605 H           3.9762    2.1634    0.7016 H     1    ESP         0.0150
   1606 H           3.9150    2.6281    0.7016 H     1    ESP         0.0147
   1607 H           3.7357    3.0610    0.7016 H     1    ESP         0.0147
   1608 H           3.4504    3.4328    0.7016 H     1    ESP         0.0148
   1609 H           3.0786    3.7181    0.7016 H     1    ESP         0.0148
   1610 H           2.6456    3.8975    0.7016 H     1    ESP         0.0146
   1611 H           2.1810    3.9586    0.7016 H     1    ESP         0.0143
   1612 H           1.7163    3.8975    0.7016 H     1    ESP         0.0141
   1613 H           1.2834    3.7181    0.7016 H     1    ESP         0.0144
   1614 H           4.0870    2.1634    0.2522 H     1    ESP         0.0165
   1615 H           4.0271    2.6374    0.2522 H     1    ESP         0.0156
   1616 H           3.8512    3.0816    0.2522 H     1    ESP         0.0155
   1617 H           3.5704    3.4682    0.2522 H     1    ESP         0.0155
   1618 H           3.2023    3.7727    0.2522 H     1    ESP         0.0155
   1619 H           2.7700    3.9761    0.2522 H     1    ESP         0.0154
   1620 H           2.3007    4.0657    0.2522 H     1    ESP         0.0152
   1621 H           1.8238    4.0357    0.2522 H     1    ESP         0.0151
   1622 H           1.3694    3.8880    0.2522 H     1    ESP         0.0155
   1623 H           0.9660    3.6320    0.2522 H     1    ESP         0.0173
   1624 H           4.0870    2.1634   -0.2107 H     1    ESP         0.0164
   1625 H           4.0271    2.6374   -0.2107 H     1    ESP         0.0156
   1626 H           3.8512    3.0816   -0.2107 H     1    ESP         0.0155
   1627 H           3.5704    3.4682   -0.2107 H     1    ESP         0.0155
   1628 H           3.2023    3.7727   -0.2107 H     1    ESP         0.0155
   1629 H           2.7700    3.9761   -0.2107 H     1    ESP         0.0154
   1630 H           2.3007    4.0657   -0.2107 H     1    ESP         0.0152
   1631 H           1.8238    4.0357   -0.2107 H     1    ESP         0.0151
   1632 H           1.3694    3.8880   -0.2107 H     1    ESP         0.0155
   1633 H           0.9660    3.6320   -0.2107 H     1    ESP         0.0174
   1634 H           3.9762    2.1634   -0.6601 H     1    ESP         0.0149
   1635 H           3.9150    2.6281   -0.6601 H     1    ESP         0.0146
   1636 H           3.7357    3.0610   -0.6601 H     1    ESP         0.0146
   1637 H           3.4504    3.4328   -0.6601 H     1    ESP         0.0147
   1638 H           3.0786    3.7181   -0.6601 H     1    ESP         0.0147
   1639 H           2.6456    3.8975   -0.6601 H     1    ESP         0.0146
   1640 H           2.1810    3.9586   -0.6601 H     1    ESP         0.0143
   1641 H           1.7163    3.8975   -0.6601 H     1    ESP         0.0141
   1642 H           1.2834    3.7181   -0.6601 H     1    ESP         0.0145
   1643 H           3.7611    2.1634   -1.0699 H     1    ESP         0.0122
   1644 H           3.6909    2.6292   -1.0699 H     1    ESP         0.0127
   1645 H           3.4865    3.0535   -1.0699 H     1    ESP         0.0130
   1646 H           3.1662    3.3988   -1.0699 H     1    ESP         0.0132
   1647 H           2.7583    3.6343   -1.0699 H     1    ESP         0.0131
   1648 H           2.2991    3.7391   -1.0699 H     1    ESP         0.0128
   1649 H           1.8294    3.7039   -1.0699 H     1    ESP         0.0123
   1650 H           1.3909    3.5318   -1.0699 H     1    ESP         0.0119
   1651 H           3.4542    2.1634   -1.4164 H     1    ESP         0.0089
   1652 H           3.3682    2.6233   -1.4164 H     1    ESP         0.0101
   1653 H           3.1219    3.0212   -1.4164 H     1    ESP         0.0108
   1654 H           2.7485    3.3031   -1.4164 H     1    ESP         0.0109
   1655 H           2.2985    3.4312   -1.4164 H     1    ESP         0.0105
   1656 H           1.8326    3.3880   -1.4164 H     1    ESP         0.0096
   1657 H           1.4137    3.1794   -1.4164 H     1    ESP         0.0081
   1658 H           3.0732    2.1634   -1.6793 H     1    ESP         0.0053
   1659 H           2.9537    2.6096   -1.6793 H     1    ESP         0.0073
   1660 H           2.6271    2.9361   -1.6793 H     1    ESP         0.0078
   1661 H           2.1810    3.0557   -1.6793 H     1    ESP         0.0072
   1662 H           1.7348    2.9361   -1.6793 H     1    ESP         0.0052
   1663 H           2.4107    2.5613   -1.8434 H     1    ESP         0.0038
   1664 H          -0.5365    2.5451    1.8624 H     1    ESP         0.0002
   1665 H           0.1394    2.9199    1.6983 H     1    ESP         0.0037
   1666 H          -0.3068    3.0395    1.6983 H     1    ESP         0.0045
   1667 H          -0.7529    2.9199    1.6983 H     1    ESP         0.0036
   1668 H          -1.0795    2.5933    1.6983 H     1    ESP         0.0010
   1669 H          -1.1990    2.1472    1.6983 H     1    ESP        -0.0025
   1670 H           0.2607    3.2869    1.4354 H     1    ESP         0.0078
   1671 H          -0.1893    3.4150    1.4354 H     1    ESP         0.0080
   1672 H          -0.6552    3.3718    1.4354 H     1    ESP         0.0073
   1673 H          -1.0741    3.1632    1.4354 H     1    ESP         0.0055
   1674 H          -1.3893    2.8174    1.4354 H     1    ESP         0.0027
   1675 H          -1.5583    2.3811    1.4354 H     1    ESP        -0.0012
   1676 H           0.6784    3.3826    1.0889 H     1    ESP         0.0115
   1677 H           0.2705    3.6181    1.0889 H     1    ESP         0.0111
   1678 H          -0.1887    3.7229    1.0889 H     1    ESP         0.0106
   1679 H          -0.6584    3.6877    1.0889 H     1    ESP         0.0098
   1680 H          -1.0968    3.5156    1.0889 H     1    ESP         0.0083
   1681 H          -1.4651    3.2219    1.0889 H     1    ESP         0.0058
   1682 H          -1.7304    2.8328    1.0889 H     1    ESP         0.0023
   1683 H           0.5908    3.7019    0.6791 H     1    ESP         0.0141
   1684 H           0.1579    3.8812    0.6791 H     1    ESP         0.0130
   1685 H          -0.3068    3.9424    0.6791 H     1    ESP         0.0122
   1686 H          -0.7714    3.8812    0.6791 H     1    ESP         0.0112
   1687 H          -1.2044    3.7019    0.6791 H     1    ESP         0.0096
   1688 H          -1.5762    3.4166    0.6791 H     1    ESP         0.0073
   1689 H          -1.8615    3.0448    0.6791 H     1    ESP         0.0038
   1690 H           0.7145    3.7565    0.2296 H     1    ESP         0.0161
   1691 H           0.2822    3.9599    0.2296 H     1    ESP         0.0144
   1692 H          -0.1871    4.0494    0.2296 H     1    ESP         0.0133
   1693 H          -0.6639    4.0194    0.2296 H     1    ESP         0.0123
   1694 H          -1.1183    3.8718    0.2296 H     1    ESP         0.0109
   1695 H          -1.5217    3.6158    0.2296 H     1    ESP         0.0088
   1696 H          -1.8488    3.2675    0.2296 H     1    ESP         0.0057
   1697 H          -2.0789    2.8488    0.2296 H     1    ESP         0.0012
   1698 H           0.7145    3.7565   -0.2332 H     1    ESP         0.0160
   1699 H           0.2822    3.9599   -0.2332 H     1    ESP         0.0143
   1700 H          -0.1871    4.0494   -0.2332 H     1    ESP         0.0133
   1701 H          -0.6639    4.0194   -0.2332 H     1    ESP         0.0123
   1702 H          -1.1183    3.8718   -0.2332 H     1    ESP         0.0109
   1703 H          -1.5217    3.6158   -0.2332 H     1    ESP         0.0088
   1704 H          -1.8488    3.2675   -0.2332 H     1    ESP         0.0057
   1705 H          -2.0789    2.8488   -0.2332 H     1    ESP         0.0012
   1706 H           0.5908    3.7019   -0.6826 H     1    ESP         0.0140
   1707 H           0.1579    3.8812   -0.6826 H     1    ESP         0.0130
   1708 H          -0.3068    3.9424   -0.6826 H     1    ESP         0.0122
   1709 H          -0.7714    3.8812   -0.6826 H     1    ESP         0.0112
   1710 H          -1.2044    3.7019   -0.6826 H     1    ESP         0.0096
   1711 H          -1.5762    3.4166   -0.6826 H     1    ESP         0.0073
   1712 H          -1.8615    3.0448   -0.6826 H     1    ESP         0.0038
   1713 H           0.6784    3.3826   -1.0925 H     1    ESP         0.0113
   1714 H           0.2705    3.6181   -1.0925 H     1    ESP         0.0110
   1715 H          -0.1887    3.7229   -1.0925 H     1    ESP         0.0106
   1716 H          -0.6584    3.6877   -1.0925 H     1    ESP         0.0097
   1717 H          -1.0968    3.5156   -1.0925 H     1    ESP         0.0082
   1718 H          -1.4651    3.2219   -1.0925 H     1    ESP         0.0058
   1719 H          -1.7304    2.8328   -1.0925 H     1    ESP         0.0022
   1720 H           0.2607    3.2869   -1.4389 H     1    ESP         0.0077
   1721 H          -0.1893    3.4150   -1.4389 H     1    ESP         0.0079
   1722 H          -0.6552    3.3718   -1.4389 H     1    ESP         0.0072
   1723 H          -1.0741    3.1632   -1.4389 H     1    ESP         0.0055
   1724 H          -1.3893    2.8174   -1.4389 H     1    ESP         0.0026
   1725 H          -1.5583    2.3811   -1.4389 H     1    ESP        -0.0013
   1726 H           0.1394    2.9199   -1.7019 H     1    ESP         0.0036
   1727 H          -0.3068    3.0395   -1.7019 H     1    ESP         0.0045
   1728 H          -0.7529    2.9199   -1.7019 H     1    ESP         0.0036
   1729 H          -1.0795    2.5933   -1.7019 H     1    ESP         0.0010
   1730 H          -1.1990    2.1472   -1.7019 H     1    ESP        -0.0025
   1731 H          -0.5365    2.5451   -1.8660 H     1    ESP         0.0003
   1732 H           0.2653   -1.2149    2.7021 H     1    ESP        -0.0107
   1733 H           0.7342   -1.2149    2.6610 H     1    ESP        -0.0111
   1734 H           0.4998   -0.8089    2.6610 H     1    ESP        -0.0124
   1735 H           0.0309   -0.8089    2.6610 H     1    ESP        -0.0121
   1736 H          -0.2035   -1.2149    2.6610 H     1    ESP        -0.0104
   1737 H           0.0309   -1.6210    2.6610 H     1    ESP        -0.0086
   1738 H           0.4998   -1.6210    2.6610 H     1    ESP        -0.0090
   1739 H           0.7271   -0.4152    2.5392 H     1    ESP        -0.0139
   1740 H          -0.6581   -1.2149    2.5392 H     1    ESP        -0.0104
   1741 H          -0.5344   -1.6767    2.5392 H     1    ESP        -0.0081
   1742 H          -0.1964   -2.0147    2.5392 H     1    ESP        -0.0063
   1743 H           0.2653   -2.1384    2.5392 H     1    ESP        -0.0058
   1744 H           0.7271   -2.0147    2.5392 H     1    ESP        -0.0068
   1745 H          -1.0032   -1.6767    2.3403 H     1    ESP        -0.0082
   1746 H          -0.7688   -2.0827    2.3403 H     1    ESP        -0.0055
   1747 H          -0.4097   -2.3841    2.3403 H     1    ESP        -0.0036
   1748 H           0.0309   -2.5444    2.3403 H     1    ESP        -0.0027
   1749 H           0.4998   -2.5444    2.3403 H     1    ESP        -0.0028
   1750 H           0.9403   -2.3841    2.3403 H     1    ESP        -0.0039
   1751 H          -1.0809   -2.3102    2.0704 H     1    ESP        -0.0036
   1752 H          -0.7355   -2.6328    2.0704 H     1    ESP        -0.0010
   1753 H          -0.3158   -2.8503    2.0704 H     1    ESP         0.0004
   1754 H           0.1469   -2.9464    2.0704 H     1    ESP         0.0009
   1755 H           0.6185   -2.9142    2.0704 H     1    ESP         0.0007
   1756 H           0.7256   -3.2314    1.7376 H     1    ESP         0.0045
   1757 H           0.7215   -3.5083    1.3521 H     1    ESP         0.0084
   1758 H           0.7256   -3.2314   -1.7335 H     1    ESP         0.0045
   1759 H          -1.0809   -2.3102   -2.0663 H     1    ESP        -0.0036
   1760 H          -0.7355   -2.6328   -2.0663 H     1    ESP        -0.0010
   1761 H          -0.3158   -2.8503   -2.0663 H     1    ESP         0.0005
   1762 H           0.1469   -2.9464   -2.0663 H     1    ESP         0.0009
   1763 H           0.6185   -2.9142   -2.0663 H     1    ESP         0.0007
   1764 H           0.9403   -0.0458   -2.3362 H     1    ESP        -0.0152
   1765 H          -1.0032   -1.6767   -2.3362 H     1    ESP        -0.0082
   1766 H          -0.7688   -2.0827   -2.3362 H     1    ESP        -0.0055
   1767 H          -0.4097   -2.3841   -2.3362 H     1    ESP        -0.0035
   1768 H           0.0309   -2.5444   -2.3362 H     1    ESP        -0.0026
   1769 H           0.4998   -2.5444   -2.3362 H     1    ESP        -0.0028
   1770 H           0.9403   -2.3841   -2.3362 H     1    ESP        -0.0039
   1771 H           0.7271   -0.4152   -2.5351 H     1    ESP        -0.0139
   1772 H          -0.6581   -1.2149   -2.5351 H     1    ESP        -0.0104
   1773 H          -0.5344   -1.6767   -2.5351 H     1    ESP        -0.0080
   1774 H          -0.1964   -2.0147   -2.5351 H     1    ESP        -0.0062
   1775 H           0.2653   -2.1384   -2.5351 H     1    ESP        -0.0057
   1776 H           0.7271   -2.0147   -2.5351 H     1    ESP        -0.0068
   1777 H           0.7342   -1.2149   -2.6569 H     1    ESP        -0.0111
   1778 H           0.4998   -0.8089   -2.6569 H     1    ESP        -0.0124
   1779 H           0.0309   -0.8089   -2.6569 H     1    ESP        -0.0121
   1780 H          -0.2035   -1.2149   -2.6569 H     1    ESP        -0.0104
   1781 H           0.0309   -1.6210   -2.6569 H     1    ESP        -0.0086
   1782 H           0.4998   -1.6210   -2.6569 H     1    ESP        -0.0089
   1783 H           0.2653   -1.2149   -2.6979 H     1    ESP        -0.0107
   1784 H           1.6611   -1.1989    2.7146 H     1    ESP        -0.0093
   1785 H           2.1299   -1.1989    2.6736 H     1    ESP        -0.0076
   1786 H           1.8955   -0.7929    2.6736 H     1    ESP        -0.0103
   1787 H           1.4267   -0.7929    2.6736 H     1    ESP        -0.0117
   1788 H           1.1922   -1.1989    2.6736 H     1    ESP        -0.0107
   1789 H           1.4267   -1.6050    2.6736 H     1    ESP        -0.0080
   1790 H           1.8955   -1.6050    2.6736 H     1    ESP        -0.0064
   1791 H           2.5845   -1.1989    2.5518 H     1    ESP        -0.0056
   1792 H           1.1994   -0.3992    2.5518 H     1    ESP        -0.0136
   1793 H           1.1994   -1.9987    2.5518 H     1    ESP        -0.0063
   1794 H           1.6611   -2.1224    2.5518 H     1    ESP        -0.0042
   1795 H           2.1228   -1.9987    2.5518 H     1    ESP        -0.0033
   1796 H           2.4608   -1.6607    2.5518 H     1    ESP        -0.0038
   1797 H           3.0111   -1.1989    2.3529 H     1    ESP        -0.0029
   1798 H           0.9861   -0.0298    2.3529 H     1    ESP        -0.0152
   1799 H           0.9861   -2.3681    2.3529 H     1    ESP        -0.0040
   1800 H           1.4267   -2.5284    2.3529 H     1    ESP        -0.0019
   1801 H           1.8955   -2.5284    2.3529 H     1    ESP        -0.0005
   1802 H           2.3361   -2.3681    2.3529 H     1    ESP         0.0001
   1803 H           2.6952   -2.0667    2.3529 H     1    ESP        -0.0002
   1804 H           2.9297   -1.6607    2.3529 H     1    ESP        -0.0011
   1805 H           1.0799   -2.8343    2.0829 H     1    ESP         0.0004
   1806 H           1.5426   -2.9304    2.0829 H     1    ESP         0.0020
   1807 H           2.0142   -2.8982    2.0829 H     1    ESP         0.0031
   1808 H           2.4595   -2.7399    2.0829 H     1    ESP         0.0037
   1809 H           2.8457   -2.4673    2.0829 H     1    ESP         0.0037
   1810 H           3.1440   -2.1007    2.0829 H     1    ESP         0.0030
   1811 H           3.3323   -1.6672    2.0829 H     1    ESP         0.0020
   1812 H           1.2008   -3.2154    1.7501 H     1    ESP         0.0049
   1813 H           3.5246   -2.0964    1.7501 H     1    ESP         0.0064
   1814 H           3.6775   -1.6592    1.7501 H     1    ESP         0.0056
   1815 H           1.2008   -3.2154   -1.7209 H     1    ESP         0.0049
   1816 H           3.5246   -2.0964   -1.7209 H     1    ESP         0.0061
   1817 H           3.6775   -1.6592   -1.7209 H     1    ESP         0.0052
   1818 H           1.0799   -2.8343   -2.0537 H     1    ESP         0.0005
   1819 H           1.5426   -2.9304   -2.0537 H     1    ESP         0.0020
   1820 H           2.0142   -2.8982   -2.0537 H     1    ESP         0.0030
   1821 H           2.4595   -2.7399   -2.0537 H     1    ESP         0.0036
   1822 H           2.8457   -2.4673   -2.0537 H     1    ESP         0.0035
   1823 H           3.1440   -2.1007   -2.0537 H     1    ESP         0.0028
   1824 H           3.3323   -1.6672   -2.0537 H     1    ESP         0.0017
   1825 H           3.0111   -1.1989   -2.3237 H     1    ESP        -0.0032
   1826 H           0.9861   -0.0298   -2.3237 H     1    ESP        -0.0153
   1827 H           1.4267   -2.5284   -2.3237 H     1    ESP        -0.0020
   1828 H           1.8955   -2.5284   -2.3237 H     1    ESP        -0.0006
   1829 H           2.3361   -2.3681   -2.3237 H     1    ESP        -0.0001
   1830 H           2.6952   -2.0667   -2.3237 H     1    ESP        -0.0004
   1831 H           2.9297   -1.6607   -2.3237 H     1    ESP        -0.0014
   1832 H           2.5845   -1.1989   -2.5226 H     1    ESP        -0.0058
   1833 H           1.1994   -0.3992   -2.5226 H     1    ESP        -0.0137
   1834 H           1.1994   -1.9987   -2.5226 H     1    ESP        -0.0064
   1835 H           1.6611   -2.1224   -2.5226 H     1    ESP        -0.0043
   1836 H           2.1228   -1.9987   -2.5226 H     1    ESP        -0.0035
   1837 H           2.4608   -1.6607   -2.5226 H     1    ESP        -0.0040
   1838 H           2.1299   -1.1989   -2.6444 H     1    ESP        -0.0078
   1839 H           1.8955   -0.7929   -2.6444 H     1    ESP        -0.0104
   1840 H           1.4267   -0.7929   -2.6444 H     1    ESP        -0.0118
   1841 H           1.1922   -1.1989   -2.6444 H     1    ESP        -0.0108
   1842 H           1.4267   -1.6050   -2.6444 H     1    ESP        -0.0081
   1843 H           1.8955   -1.6050   -2.6444 H     1    ESP        -0.0066
   1844 H           1.6611   -1.1989   -2.6854 H     1    ESP        -0.0094
   1845 H           2.3553    0.0124    2.7214 H     1    ESP        -0.0090
   1846 H           2.8241    0.0124    2.6804 H     1    ESP        -0.0062
   1847 H           2.5897    0.4185    2.6804 H     1    ESP        -0.0075
   1848 H           2.1209    0.4185    2.6804 H     1    ESP        -0.0102
   1849 H           1.8864    0.0124    2.6804 H     1    ESP        -0.0115
   1850 H           2.1209   -0.3936    2.6804 H     1    ESP        -0.0102
   1851 H           2.5897   -0.3936    2.6804 H     1    ESP        -0.0075
   1852 H           3.2788    0.0124    2.5586 H     1    ESP        -0.0031
   1853 H           3.1550    0.4742    2.5586 H     1    ESP        -0.0037
   1854 H           2.8170    0.8122    2.5586 H     1    ESP        -0.0055
   1855 H           1.4318    0.0124    2.5586 H     1    ESP        -0.0135
   1856 H           2.8170   -0.7873    2.5586 H     1    ESP        -0.0056
   1857 H           3.1550   -0.4493    2.5586 H     1    ESP        -0.0037
   1858 H           3.7053    0.0124    2.3597 H     1    ESP         0.0003
   1859 H           3.6239    0.4742    2.3597 H     1    ESP        -0.0001
   1860 H           3.3895    0.8802    2.3597 H     1    ESP        -0.0011
   1861 H           3.0303    1.1816    2.3597 H     1    ESP        -0.0029
   1862 H           1.0053    0.0124    2.3597 H     1    ESP        -0.0152
   1863 H           3.0303   -1.1567    2.3597 H     1    ESP        -0.0029
   1864 H           3.3895   -0.8553    2.3597 H     1    ESP        -0.0012
   1865 H           3.6239   -0.4493    2.3597 H     1    ESP        -0.0001
   1866 H           4.0265    0.4807    2.0897 H     1    ESP         0.0036
   1867 H           3.8382    0.9142    2.0897 H     1    ESP         0.0029
   1868 H           3.5399    1.2808    2.0897 H     1    ESP         0.0018
   1869 H           3.5399   -1.2559    2.0897 H     1    ESP         0.0017
   1870 H           3.8382   -0.8893    2.0897 H     1    ESP         0.0028
   1871 H           4.0265   -0.4558    2.0897 H     1    ESP         0.0036
   1872 H           3.9724    1.3020    1.7569 H     1    ESP         0.0061
   1873 H           3.9724   -1.2771    1.7569 H     1    ESP         0.0060
   1874 H           4.0087    1.6659    1.3714 H     1    ESP         0.0095
   1875 H           4.0087   -1.6410    1.3714 H     1    ESP         0.0094
   1876 H           4.0087    1.6659   -1.3286 H     1    ESP         0.0092
   1877 H           4.0087   -1.6410   -1.3286 H     1    ESP         0.0092
   1878 H           3.9724    1.3020   -1.7141 H     1    ESP         0.0057
   1879 H           3.9724   -1.2771   -1.7141 H     1    ESP         0.0057
   1880 H           4.0908    0.0124   -2.0469 H     1    ESP         0.0035
   1881 H           4.0265    0.4807   -2.0469 H     1    ESP         0.0033
   1882 H           3.8382    0.9142   -2.0469 H     1    ESP         0.0025
   1883 H           3.5399    1.2808   -2.0469 H     1    ESP         0.0014
   1884 H           3.5399   -1.2559   -2.0469 H     1    ESP         0.0014
   1885 H           3.8382   -0.8893   -2.0469 H     1    ESP         0.0025
   1886 H           4.0265   -0.4558   -2.0469 H     1    ESP         0.0032
   1887 H           3.7053    0.0124   -2.3169 H     1    ESP        -0.0001
   1888 H           3.6239    0.4742   -2.3169 H     1    ESP        -0.0004
   1889 H           3.3895    0.8802   -2.3169 H     1    ESP        -0.0015
   1890 H           3.0303    1.1816   -2.3169 H     1    ESP        -0.0032
   1891 H           1.0053    0.0124   -2.3169 H     1    ESP        -0.0154
   1892 H           3.0303   -1.1567   -2.3169 H     1    ESP        -0.0032
   1893 H           3.3895   -0.8553   -2.3169 H     1    ESP        -0.0015
   1894 H           3.6239   -0.4493   -2.3169 H     1    ESP        -0.0005
   1895 H           3.2788    0.0124   -2.5158 H     1    ESP        -0.0034
   1896 H           3.1550    0.4742   -2.5158 H     1    ESP        -0.0040
   1897 H           2.8170    0.8122   -2.5158 H     1    ESP        -0.0058
   1898 H           1.4318    0.0124   -2.5158 H     1    ESP        -0.0137
   1899 H           2.8170   -0.7873   -2.5158 H     1    ESP        -0.0058
   1900 H           3.1550   -0.4493   -2.5158 H     1    ESP        -0.0040
   1901 H           2.8241    0.0124   -2.6376 H     1    ESP        -0.0065
   1902 H           2.5897    0.4185   -2.6376 H     1    ESP        -0.0078
   1903 H           2.1209    0.4185   -2.6376 H     1    ESP        -0.0105
   1904 H           1.8864    0.0124   -2.6376 H     1    ESP        -0.0117
   1905 H           2.1209   -0.3936   -2.6376 H     1    ESP        -0.0105
   1906 H           2.5897   -0.3936   -2.6376 H     1    ESP        -0.0078
   1907 H           2.3553    0.0124   -2.6786 H     1    ESP        -0.0093
   1908 H           1.6483    1.2164    2.7157 H     1    ESP        -0.0093
   1909 H           2.1172    1.2164    2.6747 H     1    ESP        -0.0076
   1910 H           1.8827    1.6225    2.6747 H     1    ESP        -0.0064
   1911 H           1.4139    1.6225    2.6747 H     1    ESP        -0.0080
   1912 H           1.1795    1.2164    2.6747 H     1    ESP        -0.0107
   1913 H           1.4139    0.8104    2.6747 H     1    ESP        -0.0117
   1914 H           1.8827    0.8104    2.6747 H     1    ESP        -0.0103
   1915 H           2.5718    1.2164    2.5528 H     1    ESP        -0.0056
   1916 H           2.4480    1.6782    2.5528 H     1    ESP        -0.0038
   1917 H           2.1100    2.0162    2.5528 H     1    ESP        -0.0033
   1918 H           1.6483    2.1399    2.5528 H     1    ESP        -0.0042
   1919 H           1.1866    2.0162    2.5528 H     1    ESP        -0.0063
   1920 H           1.1866    0.4167    2.5528 H     1    ESP        -0.0136
   1921 H           2.9983    1.2164    2.3539 H     1    ESP        -0.0030
   1922 H           2.9169    1.6782    2.3539 H     1    ESP        -0.0012
   1923 H           2.6825    2.0842    2.3539 H     1    ESP        -0.0002
   1924 H           2.3233    2.3856    2.3539 H     1    ESP         0.0001
   1925 H           1.8827    2.5459    2.3539 H     1    ESP        -0.0005
   1926 H           1.4139    2.5459    2.3539 H     1    ESP        -0.0018
   1927 H           0.9733    2.3856    2.3539 H     1    ESP        -0.0039
   1928 H           0.9733    0.0473    2.3539 H     1    ESP        -0.0152
   1929 H           3.3195    1.6847    2.0840 H     1    ESP         0.0019
   1930 H           3.1312    2.1182    2.0840 H     1    ESP         0.0030
   1931 H           2.8329    2.4848    2.0840 H     1    ESP         0.0037
   1932 H           2.4468    2.7574    2.0840 H     1    ESP         0.0038
   1933 H           2.0014    2.9157    2.0840 H     1    ESP         0.0032
   1934 H           1.5299    2.9479    2.0840 H     1    ESP         0.0021
   1935 H           1.0671    2.8518    2.0840 H     1    ESP         0.0005
   1936 H           3.6648    1.6767    1.7512 H     1    ESP         0.0055
   1937 H           3.5118    2.1139    1.7512 H     1    ESP         0.0064
   1938 H           1.1881    3.2329    1.7512 H     1    ESP         0.0049
   1939 H           3.6648    1.6767   -1.7199 H     1    ESP         0.0051
   1940 H           3.5118    2.1139   -1.7199 H     1    ESP         0.0061
   1941 H           1.1881    3.2329   -1.7199 H     1    ESP         0.0049
   1942 H           3.3195    1.6847   -2.0526 H     1    ESP         0.0016
   1943 H           3.1312    2.1182   -2.0526 H     1    ESP         0.0027
   1944 H           2.8329    2.4848   -2.0526 H     1    ESP         0.0034
   1945 H           2.4468    2.7574   -2.0526 H     1    ESP         0.0035
   1946 H           2.0014    2.9157   -2.0526 H     1    ESP         0.0030
   1947 H           1.5299    2.9479   -2.0526 H     1    ESP         0.0020
   1948 H           1.0671    2.8518   -2.0526 H     1    ESP         0.0005
   1949 H           2.9983    1.2164   -2.3226 H     1    ESP        -0.0033
   1950 H           2.9169    1.6782   -2.3226 H     1    ESP        -0.0015
   1951 H           2.6825    2.0842   -2.3226 H     1    ESP        -0.0004
   1952 H           2.3233    2.3856   -2.3226 H     1    ESP        -0.0001
   1953 H           1.8827    2.5459   -2.3226 H     1    ESP        -0.0006
   1954 H           1.4139    2.5459   -2.3226 H     1    ESP        -0.0019
   1955 H           0.9733    2.3856   -2.3226 H     1    ESP        -0.0040
   1956 H           0.9733    0.0473   -2.3226 H     1    ESP        -0.0153
   1957 H           2.5718    1.2164   -2.5215 H     1    ESP        -0.0058
   1958 H           2.4480    1.6782   -2.5215 H     1    ESP        -0.0040
   1959 H           2.1100    2.0162   -2.5215 H     1    ESP        -0.0035
   1960 H           1.6483    2.1399   -2.5215 H     1    ESP        -0.0043
   1961 H           1.1866    2.0162   -2.5215 H     1    ESP        -0.0064
   1962 H           1.1866    0.4167   -2.5215 H     1    ESP        -0.0138
   1963 H           2.1172    1.2164   -2.6433 H     1    ESP        -0.0078
   1964 H           1.8827    1.6225   -2.6433 H     1    ESP        -0.0066
   1965 H           1.4139    1.6225   -2.6433 H     1    ESP        -0.0081
   1966 H           1.1795    1.2164   -2.6433 H     1    ESP        -0.0108
   1967 H           1.4139    0.8104   -2.6433 H     1    ESP        -0.0118
   1968 H           1.8827    0.8104   -2.6433 H     1    ESP        -0.0105
   1969 H           1.6483    1.2164   -2.6843 H     1    ESP        -0.0094
   1970 H           0.2525    1.2177    2.7030 H     1    ESP        -0.0107
   1971 H           0.7213    1.2177    2.6620 H     1    ESP        -0.0111
   1972 H           0.4869    1.6237    2.6620 H     1    ESP        -0.0090
   1973 H           0.0181    1.6237    2.6620 H     1    ESP        -0.0086
   1974 H          -0.2164    1.2177    2.6620 H     1    ESP        -0.0104
   1975 H           0.0181    0.8116    2.6620 H     1    ESP        -0.0121
   1976 H           0.4869    0.8116    2.6620 H     1    ESP        -0.0124
   1977 H           0.7142    2.0174    2.5402 H     1    ESP        -0.0068
   1978 H           0.2525    2.1411    2.5402 H     1    ESP        -0.0058
   1979 H          -0.2092    2.0174    2.5402 H     1    ESP        -0.0062
   1980 H          -0.5473    1.6794    2.5402 H     1    ESP        -0.0080
   1981 H          -0.6710    1.2177    2.5402 H     1    ESP        -0.0103
   1982 H           0.7142    0.4179    2.5402 H     1    ESP        -0.0139
   1983 H           0.9275    2.3868    2.3413 H     1    ESP        -0.0040
   1984 H           0.4869    2.5472    2.3413 H     1    ESP        -0.0028
   1985 H           0.0181    2.5472    2.3413 H     1    ESP        -0.0027
   1986 H          -0.4225    2.3868    2.3413 H     1    ESP        -0.0035
   1987 H          -0.7817    2.0854    2.3413 H     1    ESP        -0.0054
   1988 H          -1.0161    1.6794    2.3413 H     1    ESP        -0.0081
   1989 H           0.9275    0.0485    2.3413 H     1    ESP        -0.0153
   1990 H           0.6056    2.9169    2.0714 H     1    ESP         0.0007
   1991 H           0.1340    2.9492    2.0714 H     1    ESP         0.0009
   1992 H          -0.3287    2.8530    2.0714 H     1    ESP         0.0005
   1993 H          -0.7484    2.6355    2.0714 H     1    ESP        -0.0009
   1994 H          -1.0938    2.3129    2.0714 H     1    ESP        -0.0035
   1995 H           0.7127    3.2341    1.7386 H     1    ESP         0.0045
   1996 H           0.7087    3.5110    1.3530 H     1    ESP         0.0085
   1997 H           0.7087    3.5110   -1.3470 H     1    ESP         0.0084
   1998 H           0.7127    3.2341   -1.7325 H     1    ESP         0.0045
   1999 H           0.6056    2.9169   -2.0653 H     1    ESP         0.0006
   2000 H           0.1340    2.9492   -2.0653 H     1    ESP         0.0009
   2001 H          -0.3287    2.8530   -2.0653 H     1    ESP         0.0005
   2002 H          -0.7484    2.6355   -2.0653 H     1    ESP        -0.0009
   2003 H          -1.0938    2.3129   -2.0653 H     1    ESP        -0.0035
   2004 H           0.9275    2.3868   -2.3352 H     1    ESP        -0.0040
   2005 H           0.4869    2.5472   -2.3352 H     1    ESP        -0.0029
   2006 H           0.0181    2.5472   -2.3352 H     1    ESP        -0.0026
   2007 H          -0.4225    2.3868   -2.3352 H     1    ESP        -0.0035
   2008 H          -0.7817    2.0854   -2.3352 H     1    ESP        -0.0054
   2009 H          -1.0161    1.6794   -2.3352 H     1    ESP        -0.0081
   2010 H           0.7142    2.0174   -2.5341 H     1    ESP        -0.0068
   2011 H           0.2525    2.1411   -2.5341 H     1    ESP        -0.0058
   2012 H          -0.2092    2.0174   -2.5341 H     1    ESP        -0.0062
   2013 H          -0.5473    1.6794   -2.5341 H     1    ESP        -0.0080
   2014 H          -0.6710    1.2177   -2.5341 H     1    ESP        -0.0103
   2015 H           0.7142    0.4179   -2.5341 H     1    ESP        -0.0139
   2016 H           0.7213    1.2177   -2.6559 H     1    ESP        -0.0111
   2017 H           0.4869    1.6237   -2.6559 H     1    ESP        -0.0090
   2018 H           0.0181    1.6237   -2.6559 H     1    ESP        -0.0086
   2019 H          -0.2164    1.2177   -2.6559 H     1    ESP        -0.0104
   2020 H           0.0181    0.8116   -2.6559 H     1    ESP        -0.0121
   2021 H           0.4869    0.8116   -2.6559 H     1    ESP        -0.0124
   2022 H           0.2525    1.2177   -2.6970 H     1    ESP        -0.0107
   2023 H          -0.4236   -0.0022    2.6964 H     1    ESP        -0.0125
   2024 H           0.0452   -0.0022    2.6554 H     1    ESP        -0.0131
   2025 H          -0.1892    0.4038    2.6554 H     1    ESP        -0.0127
   2026 H          -0.6581    0.4038    2.6554 H     1    ESP        -0.0123
   2027 H          -0.6581   -0.4083    2.6554 H     1    ESP        -0.0123
   2028 H          -0.1892   -0.4083    2.6554 H     1    ESP        -0.0127
   2029 H           0.4998   -0.0022    2.5336 H     1    ESP        -0.0141
   2030 H           0.9264   -0.0022    2.3347 H     1    ESP        -0.0154
   2031 H           0.9264   -0.0022   -2.3419 H     1    ESP        -0.0152
   2032 H           0.4998   -0.0022   -2.5408 H     1    ESP        -0.0139
   2033 H           0.0452   -0.0022   -2.6626 H     1    ESP        -0.0130
   2034 H          -0.1892    0.4038   -2.6626 H     1    ESP        -0.0126
   2035 H          -0.6581    0.4038   -2.6626 H     1    ESP        -0.0123
   2036 H          -0.6581   -0.4083   -2.6626 H     1    ESP        -0.0123
   2037 H          -0.1892   -0.4083   -2.6626 H     1    ESP        -0.0126
   2038 H          -0.4236   -0.0022   -2.7036 H     1    ESP        -0.0125
   2039 H          -2.1848   -0.0115    3.0399 H     1    ESP        -0.0128
   2040 H          -1.7287   -0.0115    3.0057 H     1    ESP        -0.0124
   2041 H          -1.9567    0.3834    3.0057 H     1    ESP        -0.0125
   2042 H          -2.4128    0.3834    3.0057 H     1    ESP        -0.0128
   2043 H          -2.6408   -0.0115    3.0057 H     1    ESP        -0.0130
   2044 H          -2.4128   -0.4065    3.0057 H     1    ESP        -0.0128
   2045 H          -1.9567   -0.4065    3.0057 H     1    ESP        -0.0125
   2046 H          -1.2828   -0.0115    2.9039 H     1    ESP        -0.0121
   2047 H          -1.4036    0.4394    2.9039 H     1    ESP        -0.0120
   2048 H          -1.7338    0.7696    2.9039 H     1    ESP        -0.0119
   2049 H          -2.1848    0.8904    2.9039 H     1    ESP        -0.0122
   2050 H          -2.6357    0.7696    2.9039 H     1    ESP        -0.0126
   2051 H          -2.9659    0.4394    2.9039 H     1    ESP        -0.0128
   2052 H          -3.0867   -0.0115    2.9039 H     1    ESP        -0.0128
   2053 H          -2.9659   -0.4625    2.9039 H     1    ESP        -0.0128
   2054 H          -2.6357   -0.7927    2.9039 H     1    ESP        -0.0126
   2055 H          -2.1848   -0.9135    2.9039 H     1    ESP        -0.0122
   2056 H          -1.7338   -0.7927    2.9039 H     1    ESP        -0.0119
   2057 H          -1.4036   -0.4625    2.9039 H     1    ESP        -0.0120
   2058 H          -0.8571   -0.0115    2.7368 H     1    ESP        -0.0123
   2059 H          -0.9371    0.4425    2.7368 H     1    ESP        -0.0120
   2060 H          -1.1677    0.8419    2.7368 H     1    ESP        -0.0113
   2061 H          -1.5209    1.1383    2.7368 H     1    ESP        -0.0110
   2062 H          -1.9542    1.2960    2.7368 H     1    ESP        -0.0112
   2063 H          -2.4153    1.2960    2.7368 H     1    ESP        -0.0118
   2064 H          -2.8486    1.1383    2.7368 H     1    ESP        -0.0122
   2065 H          -3.2018    0.8419    2.7368 H     1    ESP        -0.0124
   2066 H          -3.4324    0.4425    2.7368 H     1    ESP        -0.0124
   2067 H          -3.5124   -0.0115    2.7368 H     1    ESP        -0.0123
   2068 H          -3.4324   -0.4656    2.7368 H     1    ESP        -0.0124
   2069 H          -3.2018   -0.8650    2.7368 H     1    ESP        -0.0124
   2070 H          -2.8486   -1.1614    2.7368 H     1    ESP        -0.0123
   2071 H          -2.4153   -1.3191    2.7368 H     1    ESP        -0.0118
   2072 H          -1.9542   -1.3191    2.7368 H     1    ESP        -0.0112
   2073 H          -1.5209   -1.1614    2.7368 H     1    ESP        -0.0110
   2074 H          -1.1677   -0.8650    2.7368 H     1    ESP        -0.0113
   2075 H          -0.9371   -0.4656    2.7368 H     1    ESP        -0.0120
   2076 H          -1.0082    1.2482    2.5082 H     1    ESP        -0.0103
   2077 H          -1.3917    1.5190    2.5082 H     1    ESP        -0.0095
   2078 H          -1.8341    1.6762    2.5082 H     1    ESP        -0.0098
   2079 H          -2.3024    1.7082    2.5082 H     1    ESP        -0.0106
   2080 H          -2.7620    1.6127    2.5082 H     1    ESP        -0.0114
   2081 H          -3.1788    1.3967    2.5082 H     1    ESP        -0.0118
   2082 H          -3.5219    1.0763    2.5082 H     1    ESP        -0.0118
   2083 H          -3.7658    0.6752    2.5082 H     1    ESP        -0.0117
   2084 H          -3.8925    0.2232    2.5082 H     1    ESP        -0.0115
   2085 H          -3.8925   -0.2463    2.5082 H     1    ESP        -0.0115
   2086 H          -3.7658   -0.6983    2.5082 H     1    ESP        -0.0116
   2087 H          -3.5219   -1.0994    2.5082 H     1    ESP        -0.0118
   2088 H          -3.1788   -1.4198    2.5082 H     1    ESP        -0.0118
   2089 H          -2.7620   -1.6358    2.5082 H     1    ESP        -0.0114
   2090 H          -2.3024   -1.7313    2.5082 H     1    ESP        -0.0107
   2091 H          -1.8341   -1.6993    2.5082 H     1    ESP        -0.0098
   2092 H          -1.3917   -1.5420    2.5082 H     1    ESP        -0.0095
   2093 H          -1.0082   -1.2713    2.5082 H     1    ESP        -0.0102
   2094 H          -1.2817    1.8637    2.2230 H     1    ESP        -0.0073
   2095 H          -1.7216    2.0176    2.2230 H     1    ESP        -0.0078
   2096 H          -2.1848    2.0698    2.2230 H     1    ESP        -0.0090
   2097 H          -2.6479    2.0176    2.2230 H     1    ESP        -0.0102
   2098 H          -3.0878    1.8637    2.2230 H     1    ESP        -0.0110
   2099 H          -3.4824    1.6157    2.2230 H     1    ESP        -0.0112
   2100 H          -3.8120    1.2861    2.2230 H     1    ESP        -0.0111
   2101 H          -4.0600    0.8915    2.2230 H     1    ESP        -0.0108
   2102 H          -4.2139    0.4516    2.2230 H     1    ESP        -0.0105
   2103 H          -4.2661   -0.0115    2.2230 H     1    ESP        -0.0103
   2104 H          -4.2139   -0.4747    2.2230 H     1    ESP        -0.0104
   2105 H          -4.0600   -0.9146    2.2230 H     1    ESP        -0.0108
   2106 H          -3.8120   -1.3092    2.2230 H     1    ESP        -0.0111
   2107 H          -3.4824   -1.6388    2.2230 H     1    ESP        -0.0112
   2108 H          -3.0878   -1.8868    2.2230 H     1    ESP        -0.0110
   2109 H          -2.6479   -2.0407    2.2230 H     1    ESP        -0.0102
   2110 H          -2.1848   -2.0929    2.2230 H     1    ESP        -0.0090
   2111 H          -1.7216   -2.0407    2.2230 H     1    ESP        -0.0078
   2112 H          -1.2817   -1.8868    2.2230 H     1    ESP        -0.0073
   2113 H          -1.7180    2.3349    1.8878 H     1    ESP        -0.0052
   2114 H          -2.1848    2.3809    1.8878 H     1    ESP        -0.0072
   2115 H          -2.6515    2.3349    1.8878 H     1    ESP        -0.0089
   2116 H          -3.1003    2.1987    1.8878 H     1    ESP        -0.0101
   2117 H          -3.5139    1.9777    1.8878 H     1    ESP        -0.0105
   2118 H          -3.8764    1.6801    1.8878 H     1    ESP        -0.0105
   2119 H          -4.1740    1.3176    1.8878 H     1    ESP        -0.0101
   2120 H          -4.3951    0.9040    1.8878 H     1    ESP        -0.0096
   2121 H          -4.5312    0.4552    1.8878 H     1    ESP        -0.0092
   2122 H          -4.5772   -0.0115    1.8878 H     1    ESP        -0.0091
   2123 H          -4.5312   -0.4783    1.8878 H     1    ESP        -0.0092
   2124 H          -4.3951   -0.9271    1.8878 H     1    ESP        -0.0096
   2125 H          -4.1740   -1.3407    1.8878 H     1    ESP        -0.0101
   2126 H          -3.8764   -1.7032    1.8878 H     1    ESP        -0.0105
   2127 H          -3.5139   -2.0008    1.8878 H     1    ESP        -0.0106
   2128 H          -3.1003   -2.2218    1.8878 H     1    ESP        -0.0101
   2129 H          -2.6515   -2.3580    1.8878 H     1    ESP        -0.0090
   2130 H          -2.1848   -2.4040    1.8878 H     1    ESP        -0.0073
   2131 H          -1.7180   -2.3580    1.8878 H     1    ESP        -0.0053
   2132 H          -2.1848    2.6385    1.5099 H     1    ESP        -0.0050
   2133 H          -2.6449    2.5982    1.5099 H     1    ESP        -0.0075
   2134 H          -3.0911    2.4787    1.5099 H     1    ESP        -0.0091
   2135 H          -3.5098    2.2835    1.5099 H     1    ESP        -0.0098
   2136 H          -3.8882    2.0185    1.5099 H     1    ESP        -0.0099
   2137 H          -4.2148    1.6919    1.5099 H     1    ESP        -0.0096
   2138 H          -4.4798    1.3135    1.5099 H     1    ESP        -0.0090
   2139 H          -4.6750    0.8948    1.5099 H     1    ESP        -0.0084
   2140 H          -4.7945    0.4486    1.5099 H     1    ESP        -0.0080
   2141 H          -4.8348   -0.0115    1.5099 H     1    ESP        -0.0078
   2142 H          -4.7945   -0.4717    1.5099 H     1    ESP        -0.0079
   2143 H          -4.6750   -0.9179    1.5099 H     1    ESP        -0.0084
   2144 H          -4.4798   -1.3366    1.5099 H     1    ESP        -0.0089
   2145 H          -4.2148   -1.7150    1.5099 H     1    ESP        -0.0095
   2146 H          -3.8882   -2.0416    1.5099 H     1    ESP        -0.0099
   2147 H          -3.5098   -2.3065    1.5099 H     1    ESP        -0.0098
   2148 H          -3.0911   -2.5018    1.5099 H     1    ESP        -0.0091
   2149 H          -2.6449   -2.6213    1.5099 H     1    ESP        -0.0076
   2150 H          -2.1848   -2.6616    1.5099 H     1    ESP        -0.0052
   2151 H          -2.2995    2.8346    1.0978 H     1    ESP        -0.0037
   2152 H          -2.7545    2.7794    1.0978 H     1    ESP        -0.0067
   2153 H          -3.1948    2.6518    1.0978 H     1    ESP        -0.0085
   2154 H          -3.6090    2.4553    1.0978 H     1    ESP        -0.0093
   2155 H          -3.9863    2.1949    1.0978 H     1    ESP        -0.0094
   2156 H          -4.3169    1.8773    1.0978 H     1    ESP        -0.0090
   2157 H          -4.5923    1.5109    1.0978 H     1    ESP        -0.0083
   2158 H          -4.8053    1.1050    1.0978 H     1    ESP        -0.0076
   2159 H          -4.9505    0.6701    1.0978 H     1    ESP        -0.0070
   2160 H          -5.0240    0.2177    1.0978 H     1    ESP        -0.0067
   2161 H          -5.0240   -0.2408    1.0978 H     1    ESP        -0.0067
   2162 H          -4.9505   -0.6932    1.0978 H     1    ESP        -0.0070
   2163 H          -4.8053   -1.1281    1.0978 H     1    ESP        -0.0076
   2164 H          -4.5923   -1.5340    1.0978 H     1    ESP        -0.0083
   2165 H          -4.3169   -1.9004    1.0978 H     1    ESP        -0.0089
   2166 H          -3.9863   -2.2180    1.0978 H     1    ESP        -0.0094
   2167 H          -3.6090   -2.4784    1.0978 H     1    ESP        -0.0093
   2168 H          -3.1948   -2.6749    1.0978 H     1    ESP        -0.0085
   2169 H          -2.7545   -2.8025    1.0978 H     1    ESP        -0.0068
   2170 H          -2.2995   -2.8577    1.0978 H     1    ESP        -0.0040
   2171 H          -2.6514    2.9350    0.6608 H     1    ESP        -0.0050
   2172 H          -3.1066    2.8257    0.6608 H     1    ESP        -0.0074
   2173 H          -3.5391    2.6466    0.6608 H     1    ESP        -0.0087
   2174 H          -3.9383    2.4020    0.6608 H     1    ESP        -0.0090
   2175 H          -4.2943    2.0979    0.6608 H     1    ESP        -0.0087
   2176 H          -4.5983    1.7420    0.6608 H     1    ESP        -0.0081
   2177 H          -4.8429    1.3428    0.6608 H     1    ESP        -0.0073
   2178 H          -5.0220    0.9103    0.6608 H     1    ESP        -0.0065
   2179 H          -5.1313    0.4551    0.6608 H     1    ESP        -0.0060
   2180 H          -5.1680   -0.0115    0.6608 H     1    ESP        -0.0058
   2181 H          -5.1313   -0.4782    0.6608 H     1    ESP        -0.0060
   2182 H          -5.0220   -0.9334    0.6608 H     1    ESP        -0.0065
   2183 H          -4.8429   -1.3659    0.6608 H     1    ESP        -0.0072
   2184 H          -4.5983   -1.7651    0.6608 H     1    ESP        -0.0080
   2185 H          -4.2943   -2.1210    0.6608 H     1    ESP        -0.0087
   2186 H          -3.9383   -2.4251    0.6608 H     1    ESP        -0.0090
   2187 H          -3.5391   -2.6697    0.6608 H     1    ESP        -0.0087
   2188 H          -3.1066   -2.8488    0.6608 H     1    ESP        -0.0076
   2189 H          -2.6514   -2.9581    0.6608 H     1    ESP        -0.0052
   2190 H          -2.1848   -2.9948    0.6608 H     1    ESP        -0.0011
   2191 H          -2.5347    3.0198    0.2086 H     1    ESP        -0.0033
   2192 H          -2.9933    2.9308    0.2086 H     1    ESP        -0.0065
   2193 H          -3.4330    2.7729    0.2086 H     1    ESP        -0.0082
   2194 H          -3.8434    2.5497    0.2086 H     1    ESP        -0.0088
   2195 H          -4.2150    2.2665    0.2086 H     1    ESP        -0.0087
   2196 H          -4.5389    1.9299    0.2086 H     1    ESP        -0.0081
   2197 H          -4.8077    1.5478    0.2086 H     1    ESP        -0.0073
   2198 H          -5.0150    1.1291    0.2086 H     1    ESP        -0.0064
   2199 H          -5.1559    0.6837    0.2086 H     1    ESP        -0.0058
   2200 H          -5.2273    0.2220    0.2086 H     1    ESP        -0.0054
   2201 H          -5.2273   -0.2451    0.2086 H     1    ESP        -0.0054
   2202 H          -5.1559   -0.7068    0.2086 H     1    ESP        -0.0058
   2203 H          -5.0150   -1.1522    0.2086 H     1    ESP        -0.0064
   2204 H          -4.8077   -1.5709    0.2086 H     1    ESP        -0.0072
   2205 H          -4.5389   -1.9530    0.2086 H     1    ESP        -0.0080
   2206 H          -4.2150   -2.2896    0.2086 H     1    ESP        -0.0086
   2207 H          -3.8434   -2.5728    0.2086 H     1    ESP        -0.0088
   2208 H          -3.4330   -2.7960    0.2086 H     1    ESP        -0.0082
   2209 H          -2.9933   -2.9539    0.2086 H     1    ESP        -0.0067
   2210 H          -2.5347   -3.0429    0.2086 H     1    ESP        -0.0036
   2211 H          -2.5347    3.0198   -0.2488 H     1    ESP        -0.0034
   2212 H          -2.9933    2.9308   -0.2488 H     1    ESP        -0.0065
   2213 H          -3.4330    2.7729   -0.2488 H     1    ESP        -0.0082
   2214 H          -3.8434    2.5497   -0.2488 H     1    ESP        -0.0088
   2215 H          -4.2150    2.2665   -0.2488 H     1    ESP        -0.0086
   2216 H          -4.5389    1.9299   -0.2488 H     1    ESP        -0.0080
   2217 H          -4.8077    1.5478   -0.2488 H     1    ESP        -0.0072
   2218 H          -5.0150    1.1291   -0.2488 H     1    ESP        -0.0064
   2219 H          -5.1559    0.6837   -0.2488 H     1    ESP        -0.0058
   2220 H          -5.2273    0.2220   -0.2488 H     1    ESP        -0.0054
   2221 H          -5.2273   -0.2451   -0.2488 H     1    ESP        -0.0054
   2222 H          -5.1559   -0.7068   -0.2488 H     1    ESP        -0.0057
   2223 H          -5.0150   -1.1522   -0.2488 H     1    ESP        -0.0064
   2224 H          -4.8077   -1.5709   -0.2488 H     1    ESP        -0.0072
   2225 H          -4.5389   -1.9530   -0.2488 H     1    ESP        -0.0080
   2226 H          -4.2150   -2.2896   -0.2488 H     1    ESP        -0.0086
   2227 H          -3.8434   -2.5728   -0.2488 H     1    ESP        -0.0088
   2228 H          -3.4330   -2.7960   -0.2488 H     1    ESP        -0.0082
   2229 H          -2.9933   -2.9539   -0.2488 H     1    ESP        -0.0067
   2230 H          -2.5347   -3.0429   -0.2488 H     1    ESP        -0.0036
   2231 H          -2.1848    2.9717   -0.7010 H     1    ESP        -0.0009
   2232 H          -2.6514    2.9350   -0.7010 H     1    ESP        -0.0050
   2233 H          -3.1066    2.8257   -0.7010 H     1    ESP        -0.0075
   2234 H          -3.5391    2.6466   -0.7010 H     1    ESP        -0.0087
   2235 H          -3.9383    2.4020   -0.7010 H     1    ESP        -0.0090
   2236 H          -4.2943    2.0979   -0.7010 H     1    ESP        -0.0087
   2237 H          -4.5983    1.7420   -0.7010 H     1    ESP        -0.0080
   2238 H          -4.8429    1.3428   -0.7010 H     1    ESP        -0.0072
   2239 H          -5.0220    0.9103   -0.7010 H     1    ESP        -0.0065
   2240 H          -5.1313    0.4551   -0.7010 H     1    ESP        -0.0059
   2241 H          -5.1680   -0.0115   -0.7010 H     1    ESP        -0.0058
   2242 H          -5.1313   -0.4782   -0.7010 H     1    ESP        -0.0059
   2243 H          -5.0220   -0.9334   -0.7010 H     1    ESP        -0.0064
   2244 H          -4.8429   -1.3659   -0.7010 H     1    ESP        -0.0071
   2245 H          -4.5983   -1.7651   -0.7010 H     1    ESP        -0.0079
   2246 H          -4.2943   -2.1210   -0.7010 H     1    ESP        -0.0086
   2247 H          -3.9383   -2.4251   -0.7010 H     1    ESP        -0.0090
   2248 H          -3.5391   -2.6697   -0.7010 H     1    ESP        -0.0087
   2249 H          -3.1066   -2.8488   -0.7010 H     1    ESP        -0.0076
   2250 H          -2.6514   -2.9581   -0.7010 H     1    ESP        -0.0052
   2251 H          -2.1848   -2.9948   -0.7010 H     1    ESP        -0.0012
   2252 H          -2.2995    2.8346   -1.1381 H     1    ESP        -0.0039
   2253 H          -2.7545    2.7794   -1.1381 H     1    ESP        -0.0068
   2254 H          -3.1948    2.6518   -1.1381 H     1    ESP        -0.0085
   2255 H          -3.6090    2.4553   -1.1381 H     1    ESP        -0.0093
   2256 H          -3.9863    2.1949   -1.1381 H     1    ESP        -0.0093
   2257 H          -4.3169    1.8773   -1.1381 H     1    ESP        -0.0089
   2258 H          -4.5923    1.5109   -1.1381 H     1    ESP        -0.0082
   2259 H          -4.8053    1.1050   -1.1381 H     1    ESP        -0.0075
   2260 H          -4.9505    0.6701   -1.1381 H     1    ESP        -0.0069
   2261 H          -5.0240    0.2177   -1.1381 H     1    ESP        -0.0066
   2262 H          -5.0240   -0.2408   -1.1381 H     1    ESP        -0.0066
   2263 H          -4.9505   -0.6932   -1.1381 H     1    ESP        -0.0069
   2264 H          -4.8053   -1.1281   -1.1381 H     1    ESP        -0.0075
   2265 H          -4.5923   -1.5340   -1.1381 H     1    ESP        -0.0082
   2266 H          -4.3169   -1.9004   -1.1381 H     1    ESP        -0.0089
   2267 H          -3.9863   -2.2180   -1.1381 H     1    ESP        -0.0093
   2268 H          -3.6090   -2.4784   -1.1381 H     1    ESP        -0.0093
   2269 H          -3.1948   -2.6749   -1.1381 H     1    ESP        -0.0086
   2270 H          -2.7545   -2.8025   -1.1381 H     1    ESP        -0.0069
   2271 H          -2.2995   -2.8577   -1.1381 H     1    ESP        -0.0041
   2272 H          -2.1848    2.6385   -1.5501 H     1    ESP        -0.0052
   2273 H          -2.6449    2.5982   -1.5501 H     1    ESP        -0.0076
   2274 H          -3.0911    2.4787   -1.5501 H     1    ESP        -0.0091
   2275 H          -3.5098    2.2835   -1.5501 H     1    ESP        -0.0098
   2276 H          -3.8882    2.0185   -1.5501 H     1    ESP        -0.0099
   2277 H          -4.2148    1.6919   -1.5501 H     1    ESP        -0.0095
   2278 H          -4.4798    1.3135   -1.5501 H     1    ESP        -0.0089
   2279 H          -4.6750    0.8948   -1.5501 H     1    ESP        -0.0083
   2280 H          -4.7945    0.4486   -1.5501 H     1    ESP        -0.0078
   2281 H          -4.8348   -0.0115   -1.5501 H     1    ESP        -0.0076
   2282 H          -4.7945   -0.4717   -1.5501 H     1    ESP        -0.0078
   2283 H          -4.6750   -0.9179   -1.5501 H     1    ESP        -0.0082
   2284 H          -4.4798   -1.3366   -1.5501 H     1    ESP        -0.0088
   2285 H          -4.2148   -1.7150   -1.5501 H     1    ESP        -0.0094
   2286 H          -3.8882   -2.0416   -1.5501 H     1    ESP        -0.0098
   2287 H          -3.5098   -2.3065   -1.5501 H     1    ESP        -0.0098
   2288 H          -3.0911   -2.5018   -1.5501 H     1    ESP        -0.0092
   2289 H          -2.6449   -2.6213   -1.5501 H     1    ESP        -0.0077
   2290 H          -2.1848   -2.6616   -1.5501 H     1    ESP        -0.0054
   2291 H          -1.7246   -2.6213   -1.5501 H     1    ESP        -0.0024
   2292 H          -1.7180    2.3349   -1.9280 H     1    ESP        -0.0054
   2293 H          -2.1848    2.3809   -1.9280 H     1    ESP        -0.0073
   2294 H          -2.6515    2.3349   -1.9280 H     1    ESP        -0.0090
   2295 H          -3.1003    2.1987   -1.9280 H     1    ESP        -0.0101
   2296 H          -3.5139    1.9777   -1.9280 H     1    ESP        -0.0105
   2297 H          -3.8764    1.6801   -1.9280 H     1    ESP        -0.0104
   2298 H          -4.1740    1.3176   -1.9280 H     1    ESP        -0.0100
   2299 H          -4.3951    0.9040   -1.9280 H     1    ESP        -0.0095
   2300 H          -4.5312    0.4552   -1.9280 H     1    ESP        -0.0091
   2301 H          -4.5772   -0.0115   -1.9280 H     1    ESP        -0.0089
   2302 H          -4.5312   -0.4783   -1.9280 H     1    ESP        -0.0090
   2303 H          -4.3951   -0.9271   -1.9280 H     1    ESP        -0.0094
   2304 H          -4.1740   -1.3407   -1.9280 H     1    ESP        -0.0099
   2305 H          -3.8764   -1.7032   -1.9280 H     1    ESP        -0.0104
   2306 H          -3.5139   -2.0008   -1.9280 H     1    ESP        -0.0105
   2307 H          -3.1003   -2.2218   -1.9280 H     1    ESP        -0.0101
   2308 H          -2.6515   -2.3580   -1.9280 H     1    ESP        -0.0091
   2309 H          -2.1848   -2.4040   -1.9280 H     1    ESP        -0.0074
   2310 H          -1.7180   -2.3580   -1.9280 H     1    ESP        -0.0055
   2311 H          -1.2817    1.8637   -2.2633 H     1    ESP        -0.0074
   2312 H          -1.7216    2.0176   -2.2633 H     1    ESP        -0.0079
   2313 H          -2.1848    2.0698   -2.2633 H     1    ESP        -0.0091
   2314 H          -2.6479    2.0176   -2.2633 H     1    ESP        -0.0102
   2315 H          -3.0878    1.8637   -2.2633 H     1    ESP        -0.0110
   2316 H          -3.4824    1.6157   -2.2633 H     1    ESP        -0.0112
   2317 H          -3.8120    1.2861   -2.2633 H     1    ESP        -0.0110
   2318 H          -4.0600    0.8915   -2.2633 H     1    ESP        -0.0106
   2319 H          -4.2139    0.4516   -2.2633 H     1    ESP        -0.0103
   2320 H          -4.2661   -0.0115   -2.2633 H     1    ESP        -0.0102
   2321 H          -4.2139   -0.4747   -2.2633 H     1    ESP        -0.0103
   2322 H          -4.0600   -0.9146   -2.2633 H     1    ESP        -0.0106
   2323 H          -3.8120   -1.3092   -2.2633 H     1    ESP        -0.0110
   2324 H          -3.4824   -1.6388   -2.2633 H     1    ESP        -0.0112
   2325 H          -3.0878   -1.8868   -2.2633 H     1    ESP        -0.0110
   2326 H          -2.6479   -2.0407   -2.2633 H     1    ESP        -0.0103
   2327 H          -2.1848   -2.0929   -2.2633 H     1    ESP        -0.0091
   2328 H          -1.7216   -2.0407   -2.2633 H     1    ESP        -0.0080
   2329 H          -1.2817   -1.8868   -2.2633 H     1    ESP        -0.0074
   2330 H          -0.7119    0.8841   -2.5484 H     1    ESP        -0.0116
   2331 H          -1.0082    1.2482   -2.5484 H     1    ESP        -0.0103
   2332 H          -1.3917    1.5190   -2.5484 H     1    ESP        -0.0096
   2333 H          -1.8341    1.6762   -2.5484 H     1    ESP        -0.0099
   2334 H          -2.3024    1.7082   -2.5484 H     1    ESP        -0.0107
   2335 H          -2.7620    1.6127   -2.5484 H     1    ESP        -0.0114
   2336 H          -3.1788    1.3967   -2.5484 H     1    ESP        -0.0118
   2337 H          -3.5219    1.0763   -2.5484 H     1    ESP        -0.0118
   2338 H          -3.7658    0.6752   -2.5484 H     1    ESP        -0.0115
   2339 H          -3.8925    0.2232   -2.5484 H     1    ESP        -0.0114
   2340 H          -3.8925   -0.2463   -2.5484 H     1    ESP        -0.0114
   2341 H          -3.7658   -0.6983   -2.5484 H     1    ESP        -0.0115
   2342 H          -3.5219   -1.0994   -2.5484 H     1    ESP        -0.0118
   2343 H          -3.1788   -1.4198   -2.5484 H     1    ESP        -0.0118
   2344 H          -2.7620   -1.6358   -2.5484 H     1    ESP        -0.0114
   2345 H          -2.3024   -1.7313   -2.5484 H     1    ESP        -0.0107
   2346 H          -1.8341   -1.6993   -2.5484 H     1    ESP        -0.0099
   2347 H          -1.3917   -1.5420   -2.5484 H     1    ESP        -0.0096
   2348 H          -1.0082   -1.2713   -2.5484 H     1    ESP        -0.0102
   2349 H          -0.7119   -0.9072   -2.5484 H     1    ESP        -0.0115
   2350 H          -0.8571   -0.0115   -2.7771 H     1    ESP        -0.0122
   2351 H          -0.9371    0.4425   -2.7771 H     1    ESP        -0.0119
   2352 H          -1.1677    0.8419   -2.7771 H     1    ESP        -0.0114
   2353 H          -1.5209    1.1383   -2.7771 H     1    ESP        -0.0110
   2354 H          -1.9542    1.2960   -2.7771 H     1    ESP        -0.0113
   2355 H          -2.4153    1.2960   -2.7771 H     1    ESP        -0.0118
   2356 H          -2.8486    1.1383   -2.7771 H     1    ESP        -0.0122
   2357 H          -3.2018    0.8419   -2.7771 H     1    ESP        -0.0124
   2358 H          -3.4324    0.4425   -2.7771 H     1    ESP        -0.0123
   2359 H          -3.5124   -0.0115   -2.7771 H     1    ESP        -0.0122
   2360 H          -3.4324   -0.4656   -2.7771 H     1    ESP        -0.0123
   2361 H          -3.2018   -0.8650   -2.7771 H     1    ESP        -0.0124
   2362 H          -2.8486   -1.1614   -2.7771 H     1    ESP        -0.0122
   2363 H          -2.4153   -1.3191   -2.7771 H     1    ESP        -0.0118
   2364 H          -1.9542   -1.3191   -2.7771 H     1    ESP        -0.0113
   2365 H          -1.5209   -1.1614   -2.7771 H     1    ESP        -0.0110
   2366 H          -1.1677   -0.8650   -2.7771 H     1    ESP        -0.0113
   2367 H          -0.9371   -0.4656   -2.7771 H     1    ESP        -0.0119
   2368 H          -1.2828   -0.0115   -2.9442 H     1    ESP        -0.0121
   2369 H          -1.4036    0.4394   -2.9442 H     1    ESP        -0.0120
   2370 H          -1.7338    0.7696   -2.9442 H     1    ESP        -0.0119
   2371 H          -2.1848    0.8904   -2.9442 H     1    ESP        -0.0122
   2372 H          -2.6357    0.7696   -2.9442 H     1    ESP        -0.0126
   2373 H          -2.9659    0.4394   -2.9442 H     1    ESP        -0.0128
   2374 H          -3.0867   -0.0115   -2.9442 H     1    ESP        -0.0128
   2375 H          -2.9659   -0.4625   -2.9442 H     1    ESP        -0.0128
   2376 H          -2.6357   -0.7927   -2.9442 H     1    ESP        -0.0126
   2377 H          -2.1848   -0.9135   -2.9442 H     1    ESP        -0.0123
   2378 H          -1.7338   -0.7927   -2.9442 H     1    ESP        -0.0119
   2379 H          -1.4036   -0.4625   -2.9442 H     1    ESP        -0.0120
   2380 H          -1.7287   -0.0115   -3.0459 H     1    ESP        -0.0124
   2381 H          -1.9567    0.3834   -3.0459 H     1    ESP        -0.0125
   2382 H          -2.4128    0.3834   -3.0459 H     1    ESP        -0.0128
   2383 H          -2.6408   -0.0115   -3.0459 H     1    ESP        -0.0130
   2384 H          -2.4128   -0.4065   -3.0459 H     1    ESP        -0.0128
   2385 H          -1.9567   -0.4065   -3.0459 H     1    ESP        -0.0125
   2386 H          -2.1848   -0.0115   -3.0801 H     1    ESP        -0.0128
   2387 H          -1.0449   -2.5896    1.9698 H     1    ESP        -0.0013
   2388 H          -0.7233   -2.9112    1.9698 H     1    ESP         0.0010
   2389 H          -0.2840   -3.0289    1.9698 H     1    ESP         0.0019
   2390 H          -1.3635   -2.8187    1.7440 H     1    ESP        -0.0000
   2391 H          -1.0491   -3.1635    1.7440 H     1    ESP         0.0025
   2392 H          -0.6315   -3.3715    1.7440 H     1    ESP         0.0041
   2393 H          -0.1669   -3.4145    1.7440 H     1    ESP         0.0048
   2394 H           0.2819   -3.2868    1.7440 H     1    ESP         0.0047
   2395 H          -1.6344   -3.0182    1.4418 H     1    ESP         0.0009
   2396 H          -1.3352   -3.3634    1.4418 H     1    ESP         0.0036
   2397 H          -0.9509   -3.6105    1.4418 H     1    ESP         0.0054
   2398 H          -0.5125   -3.7392    1.4418 H     1    ESP         0.0066
   2399 H          -0.0556   -3.7392    1.4418 H     1    ESP         0.0073
   2400 H           0.3828   -3.6105    1.4418 H     1    ESP         0.0076
   2401 H          -1.7974   -3.2498    1.0765 H     1    ESP         0.0022
   2402 H          -1.4764   -3.5917    1.0765 H     1    ESP         0.0048
   2403 H          -1.0805   -3.8429    1.0765 H     1    ESP         0.0067
   2404 H          -0.6345   -3.9878    1.0765 H     1    ESP         0.0080
   2405 H          -0.1666   -4.0172    1.0765 H     1    ESP         0.0089
   2406 H           0.2940   -3.9294    1.0765 H     1    ESP         0.0097
   2407 H           0.7183   -3.7297    1.0765 H     1    ESP         0.0105
   2408 H          -2.1349   -3.0416    0.6640 H     1    ESP        -0.0003
   2409 H          -1.8901   -3.4311    0.6640 H     1    ESP         0.0032
   2410 H          -1.5649   -3.7564    0.6640 H     1    ESP         0.0057
   2411 H          -1.1754   -4.0012    0.6640 H     1    ESP         0.0075
   2412 H          -0.7412   -4.1531    0.6640 H     1    ESP         0.0088
   2413 H          -0.2840   -4.2046    0.6640 H     1    ESP         0.0098
   2414 H           0.1731   -4.1531    0.6640 H     1    ESP         0.0108
   2415 H           0.6073   -4.0012    0.6640 H     1    ESP         0.0119
   2416 H          -2.1247   -3.2578    0.2223 H     1    ESP         0.0014
   2417 H          -1.8436   -3.6276    0.2223 H     1    ESP         0.0046
   2418 H          -1.4896   -3.9283    0.2223 H     1    ESP         0.0068
   2419 H          -1.0792   -4.1459    0.2223 H     1    ESP         0.0084
   2420 H          -0.6316   -4.2702    0.2223 H     1    ESP         0.0096
   2421 H          -0.1677   -4.2953    0.2223 H     1    ESP         0.0106
   2422 H           0.2907   -4.2202    0.2223 H     1    ESP         0.0117
   2423 H           0.7222   -4.0483    0.2223 H     1    ESP         0.0131
   2424 H          -2.1247   -3.2578   -0.2293 H     1    ESP         0.0014
   2425 H          -1.8436   -3.6276   -0.2293 H     1    ESP         0.0046
   2426 H          -1.4896   -3.9283   -0.2293 H     1    ESP         0.0068
   2427 H          -1.0792   -4.1459   -0.2293 H     1    ESP         0.0084
   2428 H          -0.6316   -4.2702   -0.2293 H     1    ESP         0.0096
   2429 H          -0.1677   -4.2953   -0.2293 H     1    ESP         0.0106
   2430 H           0.2907   -4.2202   -0.2293 H     1    ESP         0.0117
   2431 H           0.7222   -4.0483   -0.2293 H     1    ESP         0.0131
   2432 H          -2.1349   -3.0416   -0.6710 H     1    ESP        -0.0003
   2433 H          -1.8901   -3.4311   -0.6710 H     1    ESP         0.0032
   2434 H          -1.5649   -3.7564   -0.6710 H     1    ESP         0.0057
   2435 H          -1.1754   -4.0012   -0.6710 H     1    ESP         0.0075
   2436 H          -0.7412   -4.1531   -0.6710 H     1    ESP         0.0088
   2437 H          -0.2840   -4.2046   -0.6710 H     1    ESP         0.0098
   2438 H           0.1731   -4.1531   -0.6710 H     1    ESP         0.0107
   2439 H           0.6073   -4.0012   -0.6710 H     1    ESP         0.0118
   2440 H          -1.7974   -3.2498   -1.0835 H     1    ESP         0.0021
   2441 H          -1.4764   -3.5917   -1.0835 H     1    ESP         0.0048
   2442 H          -1.0805   -3.8429   -1.0835 H     1    ESP         0.0067
   2443 H          -0.6345   -3.9878   -1.0835 H     1    ESP         0.0080
   2444 H          -0.1666   -4.0172   -1.0835 H     1    ESP         0.0089
   2445 H           0.2940   -3.9294   -1.0835 H     1    ESP         0.0096
   2446 H           0.7183   -3.7297   -1.0835 H     1    ESP         0.0103
   2447 H          -1.6344   -3.0182   -1.4488 H     1    ESP         0.0009
   2448 H          -1.3352   -3.3634   -1.4488 H     1    ESP         0.0035
   2449 H          -0.9509   -3.6105   -1.4488 H     1    ESP         0.0054
   2450 H          -0.5125   -3.7392   -1.4488 H     1    ESP         0.0066
   2451 H          -0.0556   -3.7392   -1.4488 H     1    ESP         0.0072
   2452 H           0.3828   -3.6105   -1.4488 H     1    ESP         0.0075
   2453 H          -1.3635   -2.8187   -1.7510 H     1    ESP        -0.0001
   2454 H          -1.0491   -3.1635   -1.7510 H     1    ESP         0.0025
   2455 H          -0.6315   -3.3715   -1.7510 H     1    ESP         0.0041
   2456 H          -0.1669   -3.4145   -1.7510 H     1    ESP         0.0048
   2457 H           0.2819   -3.2868   -1.7510 H     1    ESP         0.0046
   2458 H          -1.0449   -2.5896   -1.9768 H     1    ESP        -0.0013
   2459 H          -0.7233   -2.9112   -1.9768 H     1    ESP         0.0010
   2460 H          -0.2840   -3.0289   -1.9768 H     1    ESP         0.0019
   2461 H           2.2037   -3.0188    1.9921 H     1    ESP         0.0048
   2462 H           2.6430   -2.9011    1.9921 H     1    ESP         0.0054
   2463 H           2.9646   -2.5795    1.9921 H     1    ESP         0.0051
   2464 H           1.8563   -3.3614    1.7663 H     1    ESP         0.0066
   2465 H           2.3209   -3.4044    1.7663 H     1    ESP         0.0075
   2466 H           2.7697   -3.2768    1.7663 H     1    ESP         0.0080
   2467 H           3.1420   -2.9956    1.7663 H     1    ESP         0.0079
   2468 H           3.3876   -2.5989    1.7663 H     1    ESP         0.0074
   2469 H           3.8089   -2.1402    1.4642 H     1    ESP         0.0091
   2470 H           1.5369   -3.6004    1.4642 H     1    ESP         0.0085
   2471 H           1.9753   -3.7291    1.4642 H     1    ESP         0.0091
   2472 H           2.4322   -3.7291    1.4642 H     1    ESP         0.0096
   2473 H           2.8706   -3.6004    1.4642 H     1    ESP         0.0099
   2474 H           3.2549   -3.3534    1.4642 H     1    ESP         0.0100
   2475 H           3.5541   -3.0081    1.4642 H     1    ESP         0.0099
   2476 H           3.7439   -2.5925    1.4642 H     1    ESP         0.0096
   2477 H           4.0744   -2.1402    1.0989 H     1    ESP         0.0115
   2478 H           1.4073   -3.8328    1.0989 H     1    ESP         0.0106
   2479 H           1.8532   -3.9777    1.0989 H     1    ESP         0.0108
   2480 H           2.3212   -4.0072    1.0989 H     1    ESP         0.0110
   2481 H           2.7818   -3.9193    1.0989 H     1    ESP         0.0113
   2482 H           3.2061   -3.7197    1.0989 H     1    ESP         0.0114
   2483 H           3.5674   -3.4208    1.0989 H     1    ESP         0.0114
   2484 H           3.8430   -3.0414    1.0989 H     1    ESP         0.0114
   2485 H           4.0156   -2.6054    1.0989 H     1    ESP         0.0114
   2486 H           4.2580   -2.1402    0.6863 H     1    ESP         0.0134
   2487 H           1.3124   -3.9911    0.6863 H     1    ESP         0.0123
   2488 H           1.7466   -4.1430    0.6863 H     1    ESP         0.0120
   2489 H           2.2037   -4.1945    0.6863 H     1    ESP         0.0120
   2490 H           2.6609   -4.1430    0.6863 H     1    ESP         0.0121
   2491 H           3.0951   -3.9911    0.6863 H     1    ESP         0.0123
   2492 H           3.4846   -3.7463    0.6863 H     1    ESP         0.0124
   2493 H           3.8098   -3.4211    0.6863 H     1    ESP         0.0124
   2494 H           4.0546   -3.0316    0.6863 H     1    ESP         0.0125
   2495 H           4.2065   -2.5974    0.6863 H     1    ESP         0.0127
   2496 H           4.3519   -2.1402    0.2446 H     1    ESP         0.0144
   2497 H           0.9982   -3.9183    0.2446 H     1    ESP         0.0143
   2498 H           1.4086   -4.1358    0.2446 H     1    ESP         0.0130
   2499 H           1.8562   -4.2601    0.2446 H     1    ESP         0.0125
   2500 H           2.3200   -4.2853    0.2446 H     1    ESP         0.0125
   2501 H           2.7784   -4.2101    0.2446 H     1    ESP         0.0126
   2502 H           3.2100   -4.0382    0.2446 H     1    ESP         0.0128
   2503 H           3.5944   -3.7775    0.2446 H     1    ESP         0.0129
   2504 H           3.9139   -3.4403    0.2446 H     1    ESP         0.0129
   2505 H           4.1534   -3.0422    0.2446 H     1    ESP         0.0131
   2506 H           4.3017   -2.6020    0.2446 H     1    ESP         0.0134
   2507 H           4.3519   -2.1402   -0.2069 H     1    ESP         0.0143
   2508 H           0.9982   -3.9183   -0.2069 H     1    ESP         0.0143
   2509 H           1.4086   -4.1358   -0.2069 H     1    ESP         0.0130
   2510 H           1.8562   -4.2601   -0.2069 H     1    ESP         0.0126
   2511 H           2.3200   -4.2853   -0.2069 H     1    ESP         0.0125
   2512 H           2.7784   -4.2101   -0.2069 H     1    ESP         0.0126
   2513 H           3.2100   -4.0382   -0.2069 H     1    ESP         0.0128
   2514 H           3.5944   -3.7775   -0.2069 H     1    ESP         0.0129
   2515 H           3.9139   -3.4403   -0.2069 H     1    ESP         0.0129
   2516 H           4.1534   -3.0422   -0.2069 H     1    ESP         0.0130
   2517 H           4.3017   -2.6020   -0.2069 H     1    ESP         0.0134
   2518 H           4.2580   -2.1402   -0.6486 H     1    ESP         0.0133
   2519 H           1.3124   -3.9911   -0.6486 H     1    ESP         0.0124
   2520 H           1.7466   -4.1430   -0.6486 H     1    ESP         0.0120
   2521 H           2.2037   -4.1945   -0.6486 H     1    ESP         0.0120
   2522 H           2.6609   -4.1430   -0.6486 H     1    ESP         0.0121
   2523 H           3.0951   -3.9911   -0.6486 H     1    ESP         0.0123
   2524 H           3.4846   -3.7463   -0.6486 H     1    ESP         0.0124
   2525 H           3.8098   -3.4211   -0.6486 H     1    ESP         0.0124
   2526 H           4.0546   -3.0316   -0.6486 H     1    ESP         0.0124
   2527 H           4.2065   -2.5974   -0.6486 H     1    ESP         0.0126
   2528 H           4.0744   -2.1402   -1.0611 H     1    ESP         0.0113
   2529 H           1.4073   -3.8328   -1.0611 H     1    ESP         0.0107
   2530 H           1.8532   -3.9777   -1.0611 H     1    ESP         0.0108
   2531 H           2.3212   -4.0072   -1.0611 H     1    ESP         0.0110
   2532 H           2.7818   -3.9193   -1.0611 H     1    ESP         0.0112
   2533 H           3.2061   -3.7197   -1.0611 H     1    ESP         0.0114
   2534 H           3.5674   -3.4208   -1.0611 H     1    ESP         0.0114
   2535 H           3.8430   -3.0414   -1.0611 H     1    ESP         0.0113
   2536 H           4.0156   -2.6054   -1.0611 H     1    ESP         0.0113
   2537 H           3.8089   -2.1402   -1.4265 H     1    ESP         0.0088
   2538 H           1.5369   -3.6004   -1.4265 H     1    ESP         0.0086
   2539 H           1.9753   -3.7291   -1.4265 H     1    ESP         0.0091
   2540 H           2.4322   -3.7291   -1.4265 H     1    ESP         0.0096
   2541 H           2.8706   -3.6004   -1.4265 H     1    ESP         0.0098
   2542 H           3.2549   -3.3534   -1.4265 H     1    ESP         0.0099
   2543 H           3.5541   -3.0081   -1.4265 H     1    ESP         0.0097
   2544 H           3.7439   -2.5925   -1.4265 H     1    ESP         0.0094
   2545 H           1.8563   -3.3614   -1.7286 H     1    ESP         0.0066
   2546 H           2.3209   -3.4044   -1.7286 H     1    ESP         0.0075
   2547 H           2.7697   -3.2768   -1.7286 H     1    ESP         0.0079
   2548 H           3.1420   -2.9956   -1.7286 H     1    ESP         0.0078
   2549 H           3.3876   -2.5989   -1.7286 H     1    ESP         0.0073
   2550 H           2.2037   -3.0188   -1.9544 H     1    ESP         0.0047
   2551 H           2.6430   -2.9011   -1.9544 H     1    ESP         0.0053
   2552 H           2.9646   -2.5795   -1.9544 H     1    ESP         0.0049
   2553 H           4.3199    0.0182    2.0042 H     1    ESP         0.0056
   2554 H           4.2022    0.4575    2.0042 H     1    ESP         0.0051
   2555 H           4.2022   -0.4211    2.0042 H     1    ESP         0.0051
   2556 H           4.7110    0.0182    1.7784 H     1    ESP         0.0081
   2557 H           4.6252    0.4768    1.7784 H     1    ESP         0.0079
   2558 H           4.3796    0.8735    1.7784 H     1    ESP         0.0072
   2559 H           4.3796   -0.8371    1.7784 H     1    ESP         0.0072
   2560 H           4.6252   -0.4404    1.7784 H     1    ESP         0.0079
   2561 H           5.0465    0.0182    1.4763 H     1    ESP         0.0101
   2562 H           4.9815    0.4704    1.4763 H     1    ESP         0.0100
   2563 H           4.7917    0.8860    1.4763 H     1    ESP         0.0098
   2564 H           4.4925    1.2313    1.4763 H     1    ESP         0.0093
   2565 H           4.1082    1.4783    1.4763 H     1    ESP         0.0087
   2566 H           4.1082   -1.4419    1.4763 H     1    ESP         0.0087
   2567 H           4.4925   -1.1949    1.4763 H     1    ESP         0.0093
   2568 H           4.7917   -0.8496    1.4763 H     1    ESP         0.0097
   2569 H           4.9815   -0.4340    1.4763 H     1    ESP         0.0100
   2570 H           5.3120    0.0182    1.1110 H     1    ESP         0.0116
   2571 H           5.2532    0.4834    1.1110 H     1    ESP         0.0115
   2572 H           5.0806    0.9194    1.1110 H     1    ESP         0.0114
   2573 H           4.8050    1.2987    1.1110 H     1    ESP         0.0113
   2574 H           4.4437    1.5976    1.1110 H     1    ESP         0.0114
   2575 H           4.4437   -1.5612    1.1110 H     1    ESP         0.0114
   2576 H           4.8050   -1.2623    1.1110 H     1    ESP         0.0113
   2577 H           5.0806   -0.8830    1.1110 H     1    ESP         0.0114
   2578 H           5.2532   -0.4470    1.1110 H     1    ESP         0.0115
   2579 H           5.4956    0.0182    0.6984 H     1    ESP         0.0125
   2580 H           5.4441    0.4753    0.6984 H     1    ESP         0.0125
   2581 H           5.2922    0.9095    0.6984 H     1    ESP         0.0124
   2582 H           5.0474    1.2990    0.6984 H     1    ESP         0.0125
   2583 H           4.7222    1.6243    0.6984 H     1    ESP         0.0128
   2584 H           4.3327    1.8690    0.6984 H     1    ESP         0.0137
   2585 H           4.3327   -1.8326    0.6984 H     1    ESP         0.0137
   2586 H           4.7222   -1.5879    0.6984 H     1    ESP         0.0128
   2587 H           5.0474   -1.2626    0.6984 H     1    ESP         0.0125
   2588 H           5.2922   -0.8731    0.6984 H     1    ESP         0.0124
   2589 H           5.4441   -0.4389    0.6984 H     1    ESP         0.0125
   2590 H           5.5895    0.0182    0.2567 H     1    ESP         0.0130
   2591 H           5.5393    0.4800    0.2567 H     1    ESP         0.0129
   2592 H           5.3910    0.9202    0.2567 H     1    ESP         0.0129
   2593 H           5.1515    1.3182    0.2567 H     1    ESP         0.0130
   2594 H           4.8320    1.6555    0.2567 H     1    ESP         0.0134
   2595 H           4.4476    1.9161    0.2567 H     1    ESP         0.0146
   2596 H           4.4476   -1.8797    0.2567 H     1    ESP         0.0146
   2597 H           4.8320   -1.6191    0.2567 H     1    ESP         0.0135
   2598 H           5.1515   -1.2818    0.2567 H     1    ESP         0.0130
   2599 H           5.3910   -0.8838    0.2567 H     1    ESP         0.0129
   2600 H           5.5393   -0.4436    0.2567 H     1    ESP         0.0129
   2601 H           5.5895    0.0182   -0.1948 H     1    ESP         0.0129
   2602 H           5.5393    0.4800   -0.1948 H     1    ESP         0.0129
   2603 H           5.3910    0.9202   -0.1948 H     1    ESP         0.0129
   2604 H           5.1515    1.3182   -0.1948 H     1    ESP         0.0130
   2605 H           4.8320    1.6555   -0.1948 H     1    ESP         0.0134
   2606 H           4.4476    1.9161   -0.1948 H     1    ESP         0.0146
   2607 H           4.4476   -1.8797   -0.1948 H     1    ESP         0.0146
   2608 H           4.8320   -1.6191   -0.1948 H     1    ESP         0.0135
   2609 H           5.1515   -1.2818   -0.1948 H     1    ESP         0.0130
   2610 H           5.3910   -0.8838   -0.1948 H     1    ESP         0.0129
   2611 H           5.5393   -0.4436   -0.1948 H     1    ESP         0.0129
   2612 H           5.4956    0.0182   -0.6365 H     1    ESP         0.0124
   2613 H           5.4441    0.4753   -0.6365 H     1    ESP         0.0124
   2614 H           5.2922    0.9095   -0.6365 H     1    ESP         0.0124
   2615 H           5.0474    1.2990   -0.6365 H     1    ESP         0.0124
   2616 H           4.7222    1.6243   -0.6365 H     1    ESP         0.0127
   2617 H           4.3327    1.8690   -0.6365 H     1    ESP         0.0136
   2618 H           4.3327   -1.8326   -0.6365 H     1    ESP         0.0137
   2619 H           4.7222   -1.5879   -0.6365 H     1    ESP         0.0128
   2620 H           5.0474   -1.2626   -0.6365 H     1    ESP         0.0124
   2621 H           5.2922   -0.8731   -0.6365 H     1    ESP         0.0124
   2622 H           5.4441   -0.4389   -0.6365 H     1    ESP         0.0124
   2623 H           5.3120    0.0182   -1.0490 H     1    ESP         0.0115
   2624 H           5.2532    0.4834   -1.0490 H     1    ESP         0.0114
   2625 H           5.0806    0.9194   -1.0490 H     1    ESP         0.0113
   2626 H           4.8050    1.2987   -1.0490 H     1    ESP         0.0112
   2627 H           4.4437    1.5976   -1.0490 H     1    ESP         0.0113
   2628 H           4.4437   -1.5612   -1.0490 H     1    ESP         0.0113
   2629 H           4.8050   -1.2623   -1.0490 H     1    ESP         0.0112
   2630 H           5.0806   -0.8830   -1.0490 H     1    ESP         0.0113
   2631 H           5.2532   -0.4470   -1.0490 H     1    ESP         0.0114
   2632 H           5.0465    0.0182   -1.4144 H     1    ESP         0.0100
   2633 H           4.9815    0.4704   -1.4144 H     1    ESP         0.0099
   2634 H           4.7917    0.8860   -1.4144 H     1    ESP         0.0096
   2635 H           4.4925    1.2313   -1.4144 H     1    ESP         0.0092
   2636 H           4.4925   -1.1949   -1.4144 H     1    ESP         0.0092
   2637 H           4.7917   -0.8496   -1.4144 H     1    ESP         0.0096
   2638 H           4.9815   -0.4340   -1.4144 H     1    ESP         0.0099
   2639 H           4.7110    0.0182   -1.7165 H     1    ESP         0.0080
   2640 H           4.6252    0.4768   -1.7165 H     1    ESP         0.0077
   2641 H           4.3796    0.8735   -1.7165 H     1    ESP         0.0070
   2642 H           4.3796   -0.8371   -1.7165 H     1    ESP         0.0070
   2643 H           4.6252   -0.4404   -1.7165 H     1    ESP         0.0077
   2644 H           4.3199    0.0182   -1.9423 H     1    ESP         0.0053
   2645 H           4.2022    0.4575   -1.9423 H     1    ESP         0.0048
   2646 H           4.2022   -0.4211   -1.9423 H     1    ESP         0.0048
   2647 H           2.9418    2.6027    1.9940 H     1    ESP         0.0051
   2648 H           2.6203    2.9243    1.9940 H     1    ESP         0.0055
   2649 H           2.1810    3.0420    1.9940 H     1    ESP         0.0048
   2650 H           3.3649    2.6221    1.7682 H     1    ESP         0.0074
   2651 H           3.1192    3.0188    1.7682 H     1    ESP         0.0079
   2652 H           2.7469    3.2999    1.7682 H     1    ESP         0.0080
   2653 H           2.2981    3.4276    1.7682 H     1    ESP         0.0075
   2654 H           1.8335    3.3846    1.7682 H     1    ESP         0.0066
   2655 H           3.7862    2.1634    1.4661 H     1    ESP         0.0090
   2656 H           3.7212    2.6157    1.4661 H     1    ESP         0.0096
   2657 H           3.5314    3.0312    1.4661 H     1    ESP         0.0099
   2658 H           3.2322    3.3765    1.4661 H     1    ESP         0.0100
   2659 H           2.8478    3.6236    1.4661 H     1    ESP         0.0099
   2660 H           2.4094    3.7523    1.4661 H     1    ESP         0.0096
   2661 H           1.9525    3.7523    1.4661 H     1    ESP         0.0092
   2662 H           1.5142    3.6236    1.4661 H     1    ESP         0.0085
   2663 H           4.0516    2.1634    1.1008 H     1    ESP         0.0115
   2664 H           3.9928    2.6286    1.1008 H     1    ESP         0.0114
   2665 H           3.8202    3.0646    1.1008 H     1    ESP         0.0114
   2666 H           3.5446    3.4439    1.1008 H     1    ESP         0.0115
   2667 H           3.1833    3.7428    1.1008 H     1    ESP         0.0114
   2668 H           2.7590    3.9425    1.1008 H     1    ESP         0.0113
   2669 H           2.2984    4.0303    1.1008 H     1    ESP         0.0110
   2670 H           1.8305    4.0009    1.1008 H     1    ESP         0.0108
   2671 H           1.3845    3.8560    1.1008 H     1    ESP         0.0107
   2672 H           0.9886    3.6048    1.1008 H     1    ESP         0.0109
   2673 H           4.2353    2.1634    0.6882 H     1    ESP         0.0134
   2674 H           4.1838    2.6205    0.6882 H     1    ESP         0.0128
   2675 H           4.0318    3.0547    0.6882 H     1    ESP         0.0125
   2676 H           3.7871    3.4442    0.6882 H     1    ESP         0.0124
   2677 H           3.4618    3.7695    0.6882 H     1    ESP         0.0124
   2678 H           3.0723    4.0143    0.6882 H     1    ESP         0.0123
   2679 H           2.6381    4.1662    0.6882 H     1    ESP         0.0122
   2680 H           2.1810    4.2177    0.6882 H     1    ESP         0.0120
   2681 H           1.7239    4.1662    0.6882 H     1    ESP         0.0120
   2682 H           1.2897    4.0143    0.6882 H     1    ESP         0.0123
   2683 H           4.3291    2.1634    0.2465 H     1    ESP         0.0145
   2684 H           4.2789    2.6252    0.2465 H     1    ESP         0.0135
   2685 H           4.1306    3.0654    0.2465 H     1    ESP         0.0131
   2686 H           3.8911    3.4634    0.2465 H     1    ESP         0.0129
   2687 H           3.5717    3.8007    0.2465 H     1    ESP         0.0129
   2688 H           3.1872    4.0613    0.2465 H     1    ESP         0.0128
   2689 H           2.7557    4.2333    0.2465 H     1    ESP         0.0127
   2690 H           2.2973    4.3084    0.2465 H     1    ESP         0.0125
   2691 H           1.8334    4.2833    0.2465 H     1    ESP         0.0125
   2692 H           1.3859    4.1590    0.2465 H     1    ESP         0.0129
   2693 H           0.9755    3.9414    0.2465 H     1    ESP         0.0142
   2694 H           4.3291    2.1634   -0.2050 H     1    ESP         0.0144
   2695 H           4.2789    2.6252   -0.2050 H     1    ESP         0.0134
   2696 H           4.1306    3.0654   -0.2050 H     1    ESP         0.0130
   2697 H           3.8911    3.4634   -0.2050 H     1    ESP         0.0129
   2698 H           3.5717    3.8007   -0.2050 H     1    ESP         0.0129
   2699 H           3.1872    4.0613   -0.2050 H     1    ESP         0.0128
   2700 H           2.7557    4.2333   -0.2050 H     1    ESP         0.0126
   2701 H           2.2973    4.3084   -0.2050 H     1    ESP         0.0125
   2702 H           1.8334    4.2833   -0.2050 H     1    ESP         0.0125
   2703 H           1.3859    4.1590   -0.2050 H     1    ESP         0.0129
   2704 H           0.9755    3.9414   -0.2050 H     1    ESP         0.0142
   2705 H           4.2353    2.1634   -0.6467 H     1    ESP         0.0133
   2706 H           4.1838    2.6205   -0.6467 H     1    ESP         0.0127
   2707 H           4.0318    3.0547   -0.6467 H     1    ESP         0.0124
   2708 H           3.7871    3.4442   -0.6467 H     1    ESP         0.0124
   2709 H           3.4618    3.7695   -0.6467 H     1    ESP         0.0124
   2710 H           3.0723    4.0143   -0.6467 H     1    ESP         0.0123
   2711 H           2.6381    4.1662   -0.6467 H     1    ESP         0.0121
   2712 H           2.1810    4.2177   -0.6467 H     1    ESP         0.0120
   2713 H           1.7239    4.1662   -0.6467 H     1    ESP         0.0120
   2714 H           1.2897    4.0143   -0.6467 H     1    ESP         0.0124
   2715 H           4.0516    2.1634   -1.0592 H     1    ESP         0.0113
   2716 H           3.9928    2.6286   -1.0592 H     1    ESP         0.0113
   2717 H           3.8202    3.0646   -1.0592 H     1    ESP         0.0113
   2718 H           3.5446    3.4439   -1.0592 H     1    ESP         0.0114
   2719 H           3.1833    3.7428   -1.0592 H     1    ESP         0.0114
   2720 H           2.7590    3.9425   -1.0592 H     1    ESP         0.0112
   2721 H           2.2984    4.0303   -1.0592 H     1    ESP         0.0110
   2722 H           1.8305    4.0009   -1.0592 H     1    ESP         0.0108
   2723 H           1.3845    3.8560   -1.0592 H     1    ESP         0.0107
   2724 H           0.9886    3.6048   -1.0592 H     1    ESP         0.0110
   2725 H           3.7862    2.1634   -1.4246 H     1    ESP         0.0088
   2726 H           3.7212    2.6157   -1.4246 H     1    ESP         0.0094
   2727 H           3.5314    3.0312   -1.4246 H     1    ESP         0.0097
   2728 H           3.2322    3.3765   -1.4246 H     1    ESP         0.0099
   2729 H           2.8478    3.6236   -1.4246 H     1    ESP         0.0098
   2730 H           2.4094    3.7523   -1.4246 H     1    ESP         0.0096
   2731 H           1.9525    3.7523   -1.4246 H     1    ESP         0.0091
   2732 H           1.5142    3.6236   -1.4246 H     1    ESP         0.0086
   2733 H           3.3649    2.6221   -1.7267 H     1    ESP         0.0072
   2734 H           3.1192    3.0188   -1.7267 H     1    ESP         0.0078
   2735 H           2.7469    3.2999   -1.7267 H     1    ESP         0.0079
   2736 H           2.2981    3.4276   -1.7267 H     1    ESP         0.0075
   2737 H           1.8335    3.3846   -1.7267 H     1    ESP         0.0066
   2738 H           2.9418    2.6027   -1.9525 H     1    ESP         0.0049
   2739 H           2.6203    2.9243   -1.9525 H     1    ESP         0.0053
   2740 H           2.1810    3.0420   -1.9525 H     1    ESP         0.0047
   2741 H          -0.3068    3.0257    1.9715 H     1    ESP         0.0020
   2742 H          -0.7461    2.9080    1.9715 H     1    ESP         0.0010
   2743 H          -1.0676    2.5865    1.9715 H     1    ESP        -0.0012
   2744 H           0.2591    3.2837    1.7457 H     1    ESP         0.0047
   2745 H          -0.1896    3.4114    1.7457 H     1    ESP         0.0048
   2746 H          -0.6542    3.3683    1.7457 H     1    ESP         0.0041
   2747 H          -1.0719    3.1604    1.7457 H     1    ESP         0.0026
   2748 H          -1.3862    2.8156    1.7457 H     1    ESP         0.0001
   2749 H           0.3600    3.6073    1.4435 H     1    ESP         0.0076
   2750 H          -0.0783    3.7360    1.4435 H     1    ESP         0.0073
   2751 H          -0.5352    3.7360    1.4435 H     1    ESP         0.0066
   2752 H          -0.9736    3.6073    1.4435 H     1    ESP         0.0054
   2753 H          -1.3580    3.3603    1.4435 H     1    ESP         0.0036
   2754 H          -1.6572    3.0150    1.4435 H     1    ESP         0.0010
   2755 H           0.6955    3.7266    1.0782 H     1    ESP         0.0105
   2756 H           0.2713    3.9262    1.0782 H     1    ESP         0.0097
   2757 H          -0.1893    4.0141    1.0782 H     1    ESP         0.0089
   2758 H          -0.6573    3.9847    1.0782 H     1    ESP         0.0080
   2759 H          -1.1032    3.8398    1.0782 H     1    ESP         0.0068
   2760 H          -1.4992    3.5885    1.0782 H     1    ESP         0.0049
   2761 H          -1.8201    3.2467    1.0782 H     1    ESP         0.0023
   2762 H           0.5845    3.9980    0.6657 H     1    ESP         0.0119
   2763 H           0.1503    4.1500    0.6657 H     1    ESP         0.0108
   2764 H          -0.3068    4.2015    0.6657 H     1    ESP         0.0099
   2765 H          -0.7639    4.1500    0.6657 H     1    ESP         0.0089
   2766 H          -1.1981    3.9980    0.6657 H     1    ESP         0.0076
   2767 H          -1.5876    3.7533    0.6657 H     1    ESP         0.0058
   2768 H          -1.9129    3.4280    0.6657 H     1    ESP         0.0034
   2769 H          -2.1576    3.0385    0.6657 H     1    ESP        -0.0001
   2770 H           0.6994    4.0451    0.2240 H     1    ESP         0.0132
   2771 H           0.2679    4.2171    0.2240 H     1    ESP         0.0117
   2772 H          -0.1905    4.2922    0.2240 H     1    ESP         0.0107
   2773 H          -0.6543    4.2671    0.2240 H     1    ESP         0.0097
   2774 H          -1.1019    4.1428    0.2240 H     1    ESP         0.0085
   2775 H          -1.5123    3.9252    0.2240 H     1    ESP         0.0069
   2776 H          -1.8663    3.6245    0.2240 H     1    ESP         0.0047
   2777 H          -2.1475    3.2547    0.2240 H     1    ESP         0.0016
   2778 H           0.6994    4.0451   -0.2276 H     1    ESP         0.0132
   2779 H           0.2679    4.2171   -0.2276 H     1    ESP         0.0117
   2780 H          -0.1905    4.2922   -0.2276 H     1    ESP         0.0107
   2781 H          -0.6543    4.2671   -0.2276 H     1    ESP         0.0097
   2782 H          -1.1019    4.1428   -0.2276 H     1    ESP         0.0085
   2783 H          -1.5123    3.9252   -0.2276 H     1    ESP         0.0069
   2784 H          -1.8663    3.6245   -0.2276 H     1    ESP         0.0047
   2785 H          -2.1475    3.2547   -0.2276 H     1    ESP         0.0016
   2786 H           0.5845    3.9980   -0.6693 H     1    ESP         0.0118
   2787 H           0.1503    4.1500   -0.6693 H     1    ESP         0.0108
   2788 H          -0.3068    4.2015   -0.6693 H     1    ESP         0.0099
   2789 H          -0.7639    4.1500   -0.6693 H     1    ESP         0.0089
   2790 H          -1.1981    3.9980   -0.6693 H     1    ESP         0.0076
   2791 H          -1.5876    3.7533   -0.6693 H     1    ESP         0.0058
   2792 H          -1.9129    3.4280   -0.6693 H     1    ESP         0.0034
   2793 H          -2.1576    3.0385   -0.6693 H     1    ESP        -0.0001
   2794 H           0.6955    3.7266   -1.0818 H     1    ESP         0.0104
   2795 H           0.2713    3.9262   -1.0818 H     1    ESP         0.0096
   2796 H          -0.1893    4.0141   -1.0818 H     1    ESP         0.0089
   2797 H          -0.6573    3.9847   -1.0818 H     1    ESP         0.0080
   2798 H          -1.1032    3.8398   -1.0818 H     1    ESP         0.0067
   2799 H          -1.4992    3.5885   -1.0818 H     1    ESP         0.0049
   2800 H          -1.8201    3.2467   -1.0818 H     1    ESP         0.0023
   2801 H           0.3600    3.6073   -1.4471 H     1    ESP         0.0075
   2802 H          -0.0783    3.7360   -1.4471 H     1    ESP         0.0072
   2803 H          -0.5352    3.7360   -1.4471 H     1    ESP         0.0066
   2804 H          -0.9736    3.6073   -1.4471 H     1    ESP         0.0054
   2805 H          -1.3580    3.3603   -1.4471 H     1    ESP         0.0036
   2806 H          -1.6572    3.0150   -1.4471 H     1    ESP         0.0010
   2807 H           0.2591    3.2837   -1.7493 H     1    ESP         0.0046
   2808 H          -0.1896    3.4114   -1.7493 H     1    ESP         0.0048
   2809 H          -0.6542    3.3683   -1.7493 H     1    ESP         0.0041
   2810 H          -1.0719    3.1604   -1.7493 H     1    ESP         0.0026
   2811 H          -1.3862    2.8156   -1.7493 H     1    ESP         0.0000
   2812 H          -0.3068    3.0257   -1.9750 H     1    ESP         0.0019
   2813 H          -0.7461    2.9080   -1.9750 H     1    ESP         0.0010
   2814 H          -1.0676    2.5865   -1.9750 H     1    ESP        -0.0013
   2815 H           0.2653   -1.2149    3.0021 H     1    ESP        -0.0091
   2816 H           0.7125   -1.2149    2.9686 H     1    ESP        -0.0092
   2817 H           0.4889   -0.8277    2.9686 H     1    ESP        -0.0104
   2818 H           0.0418   -0.8277    2.9686 H     1    ESP        -0.0103
   2819 H          -0.1818   -1.2149    2.9686 H     1    ESP        -0.0091
   2820 H           0.0418   -1.6022    2.9686 H     1    ESP        -0.0077
   2821 H           0.4889   -1.6022    2.9686 H     1    ESP        -0.0077
   2822 H           0.7075   -0.4491    2.8688 H     1    ESP        -0.0115
   2823 H          -0.6189   -1.2149    2.8688 H     1    ESP        -0.0094
   2824 H          -0.5004   -1.6571    2.8688 H     1    ESP        -0.0076
   2825 H          -0.1768   -1.9807    2.8688 H     1    ESP        -0.0061
   2826 H           0.2653   -2.0992    2.8688 H     1    ESP        -0.0055
   2827 H           0.7075   -1.9807    2.8688 H     1    ESP        -0.0060
   2828 H           0.9162   -0.0877    2.7050 H     1    ESP        -0.0128
   2829 H          -0.9578   -1.6601    2.7050 H     1    ESP        -0.0080
   2830 H          -0.7318   -2.0516    2.7050 H     1    ESP        -0.0059
   2831 H          -0.3855   -2.3422    2.7050 H     1    ESP        -0.0043
   2832 H           0.0393   -2.4968    2.7050 H     1    ESP        -0.0035
   2833 H           0.4914   -2.4968    2.7050 H     1    ESP        -0.0034
   2834 H           0.9162   -2.3422    2.7050 H     1    ESP        -0.0040
   2835 H          -1.0456   -2.2815    2.4808 H     1    ESP        -0.0048
   2836 H          -0.7092   -2.5956    2.4808 H     1    ESP        -0.0028
   2837 H          -0.3006   -2.8073    2.4808 H     1    ESP        -0.0016
   2838 H           0.1500   -2.9010    2.4808 H     1    ESP        -0.0010
   2839 H           0.6092   -2.8696    2.4808 H     1    ESP        -0.0009
   2840 H          -1.3300   -2.4872    2.2012 H     1    ESP        -0.0037
   2841 H          -1.0069   -2.8103    2.2012 H     1    ESP        -0.0013
   2842 H          -0.6200   -3.0534    2.2012 H     1    ESP         0.0003
   2843 H          -0.1887   -3.2043    2.2012 H     1    ESP         0.0012
   2844 H           0.2653   -3.2555    2.2012 H     1    ESP         0.0017
   2845 H           0.7194   -3.2043    2.2012 H     1    ESP         0.0017
   2846 H           0.2653   -3.5604    1.8725 H     1    ESP         0.0043
   2847 H           0.7229   -3.5154    1.8725 H     1    ESP         0.0045
   2848 H           0.7165   -3.7735    1.5021 H     1    ESP         0.0071
   2849 H           0.7165   -3.7735   -1.4979 H     1    ESP         0.0071
   2850 H           0.2653   -3.5604   -1.8684 H     1    ESP         0.0043
   2851 H           0.7229   -3.5154   -1.8684 H     1    ESP         0.0044
   2852 H          -1.3300   -2.4872   -2.1971 H     1    ESP        -0.0038
   2853 H          -1.0069   -2.8103   -2.1971 H     1    ESP        -0.0013
   2854 H          -0.1887   -3.2043   -2.1971 H     1    ESP         0.0013
   2855 H           0.2653   -3.2555   -2.1971 H     1    ESP         0.0017
   2856 H           0.7194   -3.2043   -2.1971 H     1    ESP         0.0017
   2857 H          -1.0456   -2.2815   -2.4767 H     1    ESP        -0.0048
   2858 H          -0.7092   -2.5956   -2.4767 H     1    ESP        -0.0028
   2859 H          -0.3006   -2.8073   -2.4767 H     1    ESP        -0.0015
   2860 H           0.1500   -2.9010   -2.4767 H     1    ESP        -0.0010
   2861 H           0.6092   -2.8696   -2.4767 H     1    ESP        -0.0010
   2862 H           0.9162   -0.0877   -2.7008 H     1    ESP        -0.0127
   2863 H          -0.7318   -2.0516   -2.7008 H     1    ESP        -0.0059
   2864 H          -0.3855   -2.3422   -2.7008 H     1    ESP        -0.0043
   2865 H           0.0393   -2.4968   -2.7008 H     1    ESP        -0.0034
   2866 H           0.4914   -2.4968   -2.7008 H     1    ESP        -0.0034
   2867 H           0.9162   -2.3422   -2.7008 H     1    ESP        -0.0040
   2868 H           0.7075   -0.4491   -2.8647 H     1    ESP        -0.0115
   2869 H          -0.6189   -1.2149   -2.8647 H     1    ESP        -0.0094
   2870 H          -0.5004   -1.6571   -2.8647 H     1    ESP        -0.0076
   2871 H          -0.1768   -1.9807   -2.8647 H     1    ESP        -0.0061
   2872 H           0.2653   -2.0992   -2.8647 H     1    ESP        -0.0055
   2873 H           0.7075   -1.9807   -2.8647 H     1    ESP        -0.0060
   2874 H           0.7125   -1.2149   -2.9644 H     1    ESP        -0.0092
   2875 H           0.4889   -0.8277   -2.9644 H     1    ESP        -0.0103
   2876 H           0.0418   -0.8277   -2.9644 H     1    ESP        -0.0103
   2877 H          -0.1818   -1.2149   -2.9644 H     1    ESP        -0.0091
   2878 H           0.0418   -1.6022   -2.9644 H     1    ESP        -0.0077
   2879 H           0.4889   -1.6022   -2.9644 H     1    ESP        -0.0077
   2880 H           0.2653   -1.2149   -2.9979 H     1    ESP        -0.0091
   2881 H           1.6611   -1.1989    3.0146 H     1    ESP        -0.0075
   2882 H           2.1082   -1.1989    2.9811 H     1    ESP        -0.0062
   2883 H           1.8846   -0.8117    2.9811 H     1    ESP        -0.0082
   2884 H           1.4375   -0.8117    2.9811 H     1    ESP        -0.0094
   2885 H           1.2140   -1.1989    2.9811 H     1    ESP        -0.0086
   2886 H           1.4375   -1.5862    2.9811 H     1    ESP        -0.0066
   2887 H           1.8846   -1.5862    2.9811 H     1    ESP        -0.0054
   2888 H           2.5454   -1.1989    2.8813 H     1    ESP        -0.0047
   2889 H           1.2190   -0.4331    2.8813 H     1    ESP        -0.0111
   2890 H           1.2190   -1.9647    2.8813 H     1    ESP        -0.0055
   2891 H           1.6611   -2.0832    2.8813 H     1    ESP        -0.0039
   2892 H           2.1032   -1.9647    2.8813 H     1    ESP        -0.0032
   2893 H           2.4269   -1.6411    2.8813 H     1    ESP        -0.0034
   2894 H           2.9627   -1.1989    2.7175 H     1    ESP        -0.0028
   2895 H           1.0103   -0.0717    2.7175 H     1    ESP        -0.0126
   2896 H           1.0103   -2.3262    2.7175 H     1    ESP        -0.0040
   2897 H           1.4351   -2.4808    2.7175 H     1    ESP        -0.0024
   2898 H           1.8871   -2.4808    2.7175 H     1    ESP        -0.0013
   2899 H           2.3119   -2.3262    2.7175 H     1    ESP        -0.0008
   2900 H           2.6582   -2.0356    2.7175 H     1    ESP        -0.0009
   2901 H           2.8842   -1.6441    2.7175 H     1    ESP        -0.0016
   2902 H           1.0952   -2.7913    2.4933 H     1    ESP        -0.0010
   2903 H           1.5458   -2.8850    2.4933 H     1    ESP         0.0003
   2904 H           2.0049   -2.8536    2.4933 H     1    ESP         0.0012
   2905 H           2.4386   -2.6994    2.4933 H     1    ESP         0.0017
   2906 H           2.8146   -2.4340    2.4933 H     1    ESP         0.0017
   2907 H           3.1050   -2.0770    2.4933 H     1    ESP         0.0013
   2908 H           3.2884   -1.6549    2.4933 H     1    ESP         0.0006
   2909 H           1.2070   -3.1883    2.2137 H     1    ESP         0.0021
   2910 H           1.6611   -3.2395    2.2137 H     1    ESP         0.0031
   2911 H           2.1151   -3.1883    2.2137 H     1    ESP         0.0038
   2912 H           2.9333   -2.7943    2.2137 H     1    ESP         0.0044
   2913 H           3.2564   -2.4712    2.2137 H     1    ESP         0.0041
   2914 H           3.4995   -2.0843    2.2137 H     1    ESP         0.0036
   2915 H           3.6504   -1.6530    2.2137 H     1    ESP         0.0030
   2916 H           1.2035   -3.4994    1.8851 H     1    ESP         0.0048
   2917 H           3.8280   -2.0965    1.8851 H     1    ESP         0.0061
   2918 H           1.2099   -3.7575    1.5146 H     1    ESP         0.0075
   2919 H           4.1025   -2.0875    1.5146 H     1    ESP         0.0085
   2920 H           1.2099   -3.7575   -1.4854 H     1    ESP         0.0075
   2921 H           4.1025   -2.0875   -1.4854 H     1    ESP         0.0083
   2922 H           1.2035   -3.4994   -1.8559 H     1    ESP         0.0049
   2923 H           1.6611   -3.5444   -1.8559 H     1    ESP         0.0056
   2924 H           3.8280   -2.0965   -1.8559 H     1    ESP         0.0058
   2925 H           1.2070   -3.1883   -2.1846 H     1    ESP         0.0021
   2926 H           1.6611   -3.2395   -2.1846 H     1    ESP         0.0030
   2927 H           2.1151   -3.1883   -2.1846 H     1    ESP         0.0037
   2928 H           2.5464   -3.0374   -2.1846 H     1    ESP         0.0041
   2929 H           2.9333   -2.7943   -2.1846 H     1    ESP         0.0042
   2930 H           3.2564   -2.4712   -2.1846 H     1    ESP         0.0039
   2931 H           3.4995   -2.0843   -2.1846 H     1    ESP         0.0034
   2932 H           3.6504   -1.6530   -2.1846 H     1    ESP         0.0027
   2933 H           1.0952   -2.7913   -2.4641 H     1    ESP        -0.0010
   2934 H           1.5458   -2.8850   -2.4641 H     1    ESP         0.0003
   2935 H           2.0049   -2.8536   -2.4641 H     1    ESP         0.0011
   2936 H           2.4386   -2.6994   -2.4641 H     1    ESP         0.0015
   2937 H           2.8146   -2.4340   -2.4641 H     1    ESP         0.0015
   2938 H           3.1050   -2.0770   -2.4641 H     1    ESP         0.0011
   2939 H           3.2884   -1.6549   -2.4641 H     1    ESP         0.0003
   2940 H           2.9627   -1.1989   -2.6883 H     1    ESP        -0.0030
   2941 H           1.0103   -0.0717   -2.6883 H     1    ESP        -0.0127
   2942 H           1.0103   -2.3262   -2.6883 H     1    ESP        -0.0040
   2943 H           1.4351   -2.4808   -2.6883 H     1    ESP        -0.0024
   2944 H           1.8871   -2.4808   -2.6883 H     1    ESP        -0.0014
   2945 H           2.3119   -2.3262   -2.6883 H     1    ESP        -0.0009
   2946 H           2.6582   -2.0356   -2.6883 H     1    ESP        -0.0011
   2947 H           2.8842   -1.6441   -2.6883 H     1    ESP        -0.0018
   2948 H           2.5454   -1.1989   -2.8521 H     1    ESP        -0.0048
   2949 H           1.2190   -0.4331   -2.8521 H     1    ESP        -0.0112
   2950 H           1.2190   -1.9647   -2.8521 H     1    ESP        -0.0056
   2951 H           1.6611   -2.0832   -2.8521 H     1    ESP        -0.0040
   2952 H           2.1032   -1.9647   -2.8521 H     1    ESP        -0.0033
   2953 H           2.4269   -1.6411   -2.8521 H     1    ESP        -0.0036
   2954 H           2.1082   -1.1989   -2.9519 H     1    ESP        -0.0063
   2955 H           1.8846   -0.8117   -2.9519 H     1    ESP        -0.0083
   2956 H           1.4375   -0.8117   -2.9519 H     1    ESP        -0.0095
   2957 H           1.2140   -1.1989   -2.9519 H     1    ESP        -0.0088
   2958 H           1.4375   -1.5862   -2.9519 H     1    ESP        -0.0067
   2959 H           1.8846   -1.5862   -2.9519 H     1    ESP        -0.0055
   2960 H           1.6611   -1.1989   -2.9854 H     1    ESP        -0.0076
   2961 H           2.3553    0.0124    3.0214 H     1    ESP        -0.0071
   2962 H           2.8024    0.0124    2.9879 H     1    ESP        -0.0050
   2963 H           2.5789    0.3997    2.9879 H     1    ESP        -0.0060
   2964 H           2.1317    0.3997    2.9879 H     1    ESP        -0.0080
   2965 H           1.9082    0.0124    2.9879 H     1    ESP        -0.0091
   2966 H           2.1317   -0.3748    2.9879 H     1    ESP        -0.0080
   2967 H           2.5789   -0.3748    2.9879 H     1    ESP        -0.0060
   2968 H           3.2396    0.0124    2.8881 H     1    ESP        -0.0028
   2969 H           3.1211    0.4546    2.8881 H     1    ESP        -0.0032
   2970 H           2.7974    0.7782    2.8881 H     1    ESP        -0.0046
   2971 H           1.4710    0.0124    2.8881 H     1    ESP        -0.0109
   2972 H           2.7974   -0.7533    2.8881 H     1    ESP        -0.0046
   2973 H           3.1211   -0.4297    2.8881 H     1    ESP        -0.0033
   2974 H           3.6569    0.0124    2.7243 H     1    ESP        -0.0005
   2975 H           3.5785    0.4576    2.7243 H     1    ESP        -0.0007
   2976 H           3.3524    0.8491    2.7243 H     1    ESP        -0.0015
   2977 H           3.0061    1.1397    2.7243 H     1    ESP        -0.0028
   2978 H           1.0536    0.0124    2.7243 H     1    ESP        -0.0126
   2979 H           3.0061   -1.1148    2.7243 H     1    ESP        -0.0028
   2980 H           3.3524   -0.8242    2.7243 H     1    ESP        -0.0015
   2981 H           3.5785   -0.4327    2.7243 H     1    ESP        -0.0007
   2982 H           4.0453    0.0124    2.5001 H     1    ESP         0.0020
   2983 H           3.9826    0.4684    2.5001 H     1    ESP         0.0018
   2984 H           3.7992    0.8905    2.5001 H     1    ESP         0.0013
   2985 H           3.5088    1.2475    2.5001 H     1    ESP         0.0004
   2986 H           3.5088   -1.2226    2.5001 H     1    ESP         0.0004
   2987 H           3.7992   -0.8656    2.5001 H     1    ESP         0.0013
   2988 H           3.9826   -0.4435    2.5001 H     1    ESP         0.0018
   2989 H           4.3447    0.4665    2.2205 H     1    ESP         0.0045
   2990 H           4.1937    0.8978    2.2205 H     1    ESP         0.0040
   2991 H           3.9506    1.2847    2.2205 H     1    ESP         0.0035
   2992 H           3.9506   -1.2598    2.2205 H     1    ESP         0.0034
   2993 H           4.1937   -0.8729    2.2205 H     1    ESP         0.0040
   2994 H           4.3447   -0.4416    2.2205 H     1    ESP         0.0044
   2995 H           4.3055    1.3155    1.8919 H     1    ESP         0.0063
   2996 H           4.0138    1.6710    1.8919 H     1    ESP         0.0058
   2997 H           4.0138   -1.6461    1.8919 H     1    ESP         0.0058
   2998 H           4.3055   -1.2906    1.8919 H     1    ESP         0.0062
   2999 H           4.3455    1.6825    1.5214 H     1    ESP         0.0085
   3000 H           4.3455   -1.6576    1.5214 H     1    ESP         0.0085
   3001 H           4.3455    1.6825   -1.4786 H     1    ESP         0.0083
   3002 H           4.3455   -1.6576   -1.4786 H     1    ESP         0.0083
   3003 H           4.3055    1.3155   -1.8491 H     1    ESP         0.0060
   3004 H           4.0138    1.6710   -1.8491 H     1    ESP         0.0055
   3005 H           4.0138   -1.6461   -1.8491 H     1    ESP         0.0055
   3006 H           4.3055   -1.2906   -1.8491 H     1    ESP         0.0060
   3007 H           4.3958    0.0124   -2.1778 H     1    ESP         0.0043
   3008 H           4.3447    0.4665   -2.1778 H     1    ESP         0.0041
   3009 H           4.1937    0.8978   -2.1778 H     1    ESP         0.0038
   3010 H           3.9506    1.2847   -2.1778 H     1    ESP         0.0032
   3011 H           3.9506   -1.2598   -2.1778 H     1    ESP         0.0032
   3012 H           4.1937   -0.8729   -2.1778 H     1    ESP         0.0037
   3013 H           4.3447   -0.4416   -2.1778 H     1    ESP         0.0041
   3014 H           4.0453    0.0124   -2.4573 H     1    ESP         0.0017
   3015 H           3.9826    0.4684   -2.4573 H     1    ESP         0.0015
   3016 H           3.7992    0.8905   -2.4573 H     1    ESP         0.0010
   3017 H           3.5088    1.2475   -2.4573 H     1    ESP         0.0002
   3018 H           3.5088   -1.2226   -2.4573 H     1    ESP         0.0001
   3019 H           3.7992   -0.8656   -2.4573 H     1    ESP         0.0010
   3020 H           3.9826   -0.4435   -2.4573 H     1    ESP         0.0015
   3021 H           3.6569    0.0124   -2.6815 H     1    ESP        -0.0007
   3022 H           3.5785    0.4576   -2.6815 H     1    ESP        -0.0010
   3023 H           3.3524    0.8491   -2.6815 H     1    ESP        -0.0017
   3024 H           3.0061    1.1397   -2.6815 H     1    ESP        -0.0030
   3025 H           1.0536    0.0124   -2.6815 H     1    ESP        -0.0128
   3026 H           3.0061   -1.1148   -2.6815 H     1    ESP        -0.0031
   3027 H           3.3524   -0.8242   -2.6815 H     1    ESP        -0.0018
   3028 H           3.5785   -0.4327   -2.6815 H     1    ESP        -0.0010
   3029 H           3.2396    0.0124   -2.8453 H     1    ESP        -0.0031
   3030 H           3.1211    0.4546   -2.8453 H     1    ESP        -0.0035
   3031 H           2.7974    0.7782   -2.8453 H     1    ESP        -0.0048
   3032 H           1.4710    0.0124   -2.8453 H     1    ESP        -0.0111
   3033 H           2.7974   -0.7533   -2.8453 H     1    ESP        -0.0048
   3034 H           3.1211   -0.4297   -2.8453 H     1    ESP        -0.0035
   3035 H           2.8024    0.0124   -2.9451 H     1    ESP        -0.0053
   3036 H           2.5789    0.3997   -2.9451 H     1    ESP        -0.0062
   3037 H           2.1317    0.3997   -2.9451 H     1    ESP        -0.0083
   3038 H           1.9082    0.0124   -2.9451 H     1    ESP        -0.0093
   3039 H           2.1317   -0.3748   -2.9451 H     1    ESP        -0.0083
   3040 H           2.5789   -0.3748   -2.9451 H     1    ESP        -0.0062
   3041 H           2.3553    0.0124   -2.9786 H     1    ESP        -0.0074
   3042 H           1.6483    1.2164    3.0157 H     1    ESP        -0.0075
   3043 H           2.0954    1.2164    2.9822 H     1    ESP        -0.0062
   3044 H           1.8719    1.6037    2.9822 H     1    ESP        -0.0054
   3045 H           1.4247    1.6037    2.9822 H     1    ESP        -0.0066
   3046 H           1.2012    1.2164    2.9822 H     1    ESP        -0.0086
   3047 H           1.4247    0.8292    2.9822 H     1    ESP        -0.0094
   3048 H           1.8719    0.8292    2.9822 H     1    ESP        -0.0082
   3049 H           2.5326    1.2164    2.8824 H     1    ESP        -0.0047
   3050 H           2.4141    1.6586    2.8824 H     1    ESP        -0.0034
   3051 H           2.0904    1.9822    2.8824 H     1    ESP        -0.0032
   3052 H           1.6483    2.1007    2.8824 H     1    ESP        -0.0038
   3053 H           1.2062    1.9822    2.8824 H     1    ESP        -0.0054
   3054 H           1.2062    0.4506    2.8824 H     1    ESP        -0.0111
   3055 H           2.9500    1.2164    2.7186 H     1    ESP        -0.0028
   3056 H           2.8715    1.6616    2.7186 H     1    ESP        -0.0016
   3057 H           2.6454    2.0531    2.7186 H     1    ESP        -0.0009
   3058 H           2.2991    2.3437    2.7186 H     1    ESP        -0.0008
   3059 H           1.8743    2.4983    2.7186 H     1    ESP        -0.0013
   3060 H           1.4223    2.4983    2.7186 H     1    ESP        -0.0023
   3061 H           0.9975    2.3437    2.7186 H     1    ESP        -0.0039
   3062 H           0.9975    0.0892    2.7186 H     1    ESP        -0.0126
   3063 H           3.2756    1.6724    2.4944 H     1    ESP         0.0006
   3064 H           3.0922    2.0945    2.4944 H     1    ESP         0.0013
   3065 H           2.8018    2.4515    2.4944 H     1    ESP         0.0017
   3066 H           2.4258    2.7169    2.4944 H     1    ESP         0.0017
   3067 H           1.9921    2.8711    2.4944 H     1    ESP         0.0012
   3068 H           1.5330    2.9025    2.4944 H     1    ESP         0.0004
   3069 H           1.0824    2.8088    2.4944 H     1    ESP        -0.0009
   3070 H           3.6377    1.6705    2.2148 H     1    ESP         0.0030
   3071 H           3.4867    2.1018    2.2148 H     1    ESP         0.0036
   3072 H           3.2436    2.4887    2.2148 H     1    ESP         0.0041
   3073 H           2.9205    2.8118    2.2148 H     1    ESP         0.0044
   3074 H           2.1024    3.2058    2.2148 H     1    ESP         0.0039
   3075 H           1.6483    3.2570    2.2148 H     1    ESP         0.0031
   3076 H           1.1942    3.2058    2.2148 H     1    ESP         0.0022
   3077 H           3.8153    2.1140    1.8861 H     1    ESP         0.0061
   3078 H           1.1907    3.5169    1.8861 H     1    ESP         0.0049
   3079 H           4.0897    2.1050    1.5157 H     1    ESP         0.0085
   3080 H           1.1972    3.7750    1.5157 H     1    ESP         0.0075
   3081 H           4.0897    2.1050   -1.4843 H     1    ESP         0.0083
   3082 H           1.1972    3.7750   -1.4843 H     1    ESP         0.0075
   3083 H           3.8153    2.1140   -1.8548 H     1    ESP         0.0058
   3084 H           1.1907    3.5169   -1.8548 H     1    ESP         0.0049
   3085 H           3.6377    1.6705   -2.1835 H     1    ESP         0.0027
   3086 H           3.4867    2.1018   -2.1835 H     1    ESP         0.0034
   3087 H           3.2436    2.4887   -2.1835 H     1    ESP         0.0039
   3088 H           2.9205    2.8118   -2.1835 H     1    ESP         0.0042
   3089 H           2.5337    3.0549   -2.1835 H     1    ESP         0.0041
   3090 H           2.1024    3.2058   -2.1835 H     1    ESP         0.0037
   3091 H           1.6483    3.2570   -2.1835 H     1    ESP         0.0030
   3092 H           1.1942    3.2058   -2.1835 H     1    ESP         0.0021
   3093 H           3.2756    1.6724   -2.4630 H     1    ESP         0.0003
   3094 H           3.0922    2.0945   -2.4630 H     1    ESP         0.0011
   3095 H           2.8018    2.4515   -2.4630 H     1    ESP         0.0015
   3096 H           2.4258    2.7169   -2.4630 H     1    ESP         0.0015
   3097 H           1.9921    2.8711   -2.4630 H     1    ESP         0.0011
   3098 H           1.5330    2.9025   -2.4630 H     1    ESP         0.0003
   3099 H           1.0824    2.8088   -2.4630 H     1    ESP        -0.0009
   3100 H           2.9500    1.2164   -2.6872 H     1    ESP        -0.0031
   3101 H           2.8715    1.6616   -2.6872 H     1    ESP        -0.0018
   3102 H           2.6454    2.0531   -2.6872 H     1    ESP        -0.0011
   3103 H           2.2991    2.3437   -2.6872 H     1    ESP        -0.0010
   3104 H           1.8743    2.4983   -2.6872 H     1    ESP        -0.0014
   3105 H           1.4223    2.4983   -2.6872 H     1    ESP        -0.0024
   3106 H           0.9975    2.3437   -2.6872 H     1    ESP        -0.0040
   3107 H           0.9975    0.0892   -2.6872 H     1    ESP        -0.0128
   3108 H           2.5326    1.2164   -2.8510 H     1    ESP        -0.0049
   3109 H           2.4141    1.6586   -2.8510 H     1    ESP        -0.0036
   3110 H           2.0904    1.9822   -2.8510 H     1    ESP        -0.0033
   3111 H           1.6483    2.1007   -2.8510 H     1    ESP        -0.0040
   3112 H           1.2062    1.9822   -2.8510 H     1    ESP        -0.0055
   3113 H           1.2062    0.4506   -2.8510 H     1    ESP        -0.0112
   3114 H           2.0954    1.2164   -2.9508 H     1    ESP        -0.0064
   3115 H           1.8719    1.6037   -2.9508 H     1    ESP        -0.0055
   3116 H           1.4247    1.6037   -2.9508 H     1    ESP        -0.0067
   3117 H           1.2012    1.2164   -2.9508 H     1    ESP        -0.0087
   3118 H           1.4247    0.8292   -2.9508 H     1    ESP        -0.0095
   3119 H           1.8719    0.8292   -2.9508 H     1    ESP        -0.0083
   3120 H           1.6483    1.2164   -2.9843 H     1    ESP        -0.0076
   3121 H           0.2525    1.2177    3.0030 H     1    ESP        -0.0091
   3122 H           0.6996    1.2177    2.9695 H     1    ESP        -0.0092
   3123 H           0.4760    1.6049    2.9695 H     1    ESP        -0.0077
   3124 H           0.0289    1.6049    2.9695 H     1    ESP        -0.0076
   3125 H          -0.1946    1.2177    2.9695 H     1    ESP        -0.0091
   3126 H           0.0289    0.8304    2.9695 H     1    ESP        -0.0103
   3127 H           0.4760    0.8304    2.9695 H     1    ESP        -0.0104
   3128 H           0.6946    1.9835    2.8698 H     1    ESP        -0.0060
   3129 H           0.2525    2.1019    2.8698 H     1    ESP        -0.0055
   3130 H          -0.1896    1.9835    2.8698 H     1    ESP        -0.0060
   3131 H          -0.5133    1.6598    2.8698 H     1    ESP        -0.0075
   3132 H          -0.6318    1.2177    2.8698 H     1    ESP        -0.0093
   3133 H           0.6946    0.4519    2.8698 H     1    ESP        -0.0116
   3134 H           0.9033    2.3449    2.7059 H     1    ESP        -0.0040
   3135 H           0.4785    2.4995    2.7059 H     1    ESP        -0.0034
   3136 H           0.0265    2.4995    2.7059 H     1    ESP        -0.0034
   3137 H          -0.3983    2.3449    2.7059 H     1    ESP        -0.0043
   3138 H          -0.7446    2.0544    2.7059 H     1    ESP        -0.0058
   3139 H          -0.9707    1.6629    2.7059 H     1    ESP        -0.0079
   3140 H           0.9033    0.0904    2.7059 H     1    ESP        -0.0128
   3141 H           0.5963    2.8723    2.4818 H     1    ESP        -0.0009
   3142 H           0.1372    2.9037    2.4818 H     1    ESP        -0.0009
   3143 H          -0.3134    2.8101    2.4818 H     1    ESP        -0.0015
   3144 H          -0.7221    2.5983    2.4818 H     1    ESP        -0.0028
   3145 H          -1.0584    2.2842    2.4818 H     1    ESP        -0.0047
   3146 H           0.7065    3.2070    2.2022 H     1    ESP         0.0017
   3147 H           0.2525    3.2582    2.2022 H     1    ESP         0.0017
   3148 H          -0.2016    3.2070    2.2022 H     1    ESP         0.0013
   3149 H          -0.6329    3.0561    2.2022 H     1    ESP         0.0004
   3150 H          -1.0198    2.8130    2.2022 H     1    ESP        -0.0012
   3151 H          -1.3429    2.4899    2.2022 H     1    ESP        -0.0036
   3152 H           0.7101    3.5181    1.8735 H     1    ESP         0.0045
   3153 H           0.2525    3.5632    1.8735 H     1    ESP         0.0043
   3154 H           0.7036    3.7763    1.5030 H     1    ESP         0.0071
   3155 H           0.7036    3.7763   -1.4970 H     1    ESP         0.0071
   3156 H           0.7101    3.5181   -1.8674 H     1    ESP         0.0044
   3157 H           0.2525    3.5632   -1.8674 H     1    ESP         0.0043
   3158 H           0.7065    3.2070   -2.1961 H     1    ESP         0.0016
   3159 H           0.2525    3.2582   -2.1961 H     1    ESP         0.0017
   3160 H          -0.2016    3.2070   -2.1961 H     1    ESP         0.0013
   3161 H          -1.0198    2.8130   -2.1961 H     1    ESP        -0.0012
   3162 H          -1.3429    2.4899   -2.1961 H     1    ESP        -0.0036
   3163 H           0.5963    2.8723   -2.4757 H     1    ESP        -0.0010
   3164 H           0.1372    2.9037   -2.4757 H     1    ESP        -0.0010
   3165 H          -0.3134    2.8101   -2.4757 H     1    ESP        -0.0015
   3166 H          -0.7221    2.5983   -2.4757 H     1    ESP        -0.0028
   3167 H          -1.0584    2.2842   -2.4757 H     1    ESP        -0.0048
   3168 H           0.9033    2.3449   -2.6999 H     1    ESP        -0.0041
   3169 H           0.4785    2.4995   -2.6999 H     1    ESP        -0.0034
   3170 H           0.0265    2.4995   -2.6999 H     1    ESP        -0.0034
   3171 H          -0.3983    2.3449   -2.6999 H     1    ESP        -0.0043
   3172 H          -0.7446    2.0544   -2.6999 H     1    ESP        -0.0058
   3173 H           0.9033    0.0904   -2.6999 H     1    ESP        -0.0127
   3174 H           0.6946    1.9835   -2.8637 H     1    ESP        -0.0060
   3175 H           0.2525    2.1019   -2.8637 H     1    ESP        -0.0055
   3176 H          -0.1896    1.9835   -2.8637 H     1    ESP        -0.0061
   3177 H          -0.5133    1.6598   -2.8637 H     1    ESP        -0.0075
   3178 H          -0.6318    1.2177   -2.8637 H     1    ESP        -0.0094
   3179 H           0.6946    0.4519   -2.8637 H     1    ESP        -0.0115
   3180 H           0.6996    1.2177   -2.9635 H     1    ESP        -0.0092
   3181 H           0.4760    1.6049   -2.9635 H     1    ESP        -0.0077
   3182 H           0.0289    1.6049   -2.9635 H     1    ESP        -0.0077
   3183 H          -0.1946    1.2177   -2.9635 H     1    ESP        -0.0091
   3184 H           0.0289    0.8304   -2.9635 H     1    ESP        -0.0103
   3185 H           0.4760    0.8304   -2.9635 H     1    ESP        -0.0104
   3186 H           0.2525    1.2177   -2.9970 H     1    ESP        -0.0091
   3187 H          -0.4236   -0.0022    2.9964 H     1    ESP        -0.0110
   3188 H           0.0235   -0.0022    2.9629 H     1    ESP        -0.0113
   3189 H          -0.2001    0.3850    2.9629 H     1    ESP        -0.0110
   3190 H          -0.2001   -0.3895    2.9629 H     1    ESP        -0.0110
   3191 H           0.4606   -0.0022    2.8631 H     1    ESP        -0.0119
   3192 H           0.8780   -0.0022    2.6993 H     1    ESP        -0.0128
   3193 H           0.8780   -0.0022   -2.7065 H     1    ESP        -0.0127
   3194 H           0.4606   -0.0022   -2.8703 H     1    ESP        -0.0118
   3195 H           0.0235   -0.0022   -2.9701 H     1    ESP        -0.0112
   3196 H          -0.2001    0.3850   -2.9701 H     1    ESP        -0.0110
   3197 H          -0.2001   -0.3895   -2.9701 H     1    ESP        -0.0110
   3198 H          -0.4236   -0.0022   -3.0036 H     1    ESP        -0.0110
   3199 H          -2.1848   -0.0115    3.3799 H     1    ESP        -0.0106
   3200 H          -1.7218   -0.0115    3.3482 H     1    ESP        -0.0104
   3201 H          -1.9533    0.3894    3.3482 H     1    ESP        -0.0104
   3202 H          -2.4162    0.3894    3.3482 H     1    ESP        -0.0106
   3203 H          -2.6477   -0.0115    3.3482 H     1    ESP        -0.0107
   3204 H          -2.4162   -0.4125    3.3482 H     1    ESP        -0.0106
   3205 H          -1.9533   -0.4125    3.3482 H     1    ESP        -0.0104
   3206 H          -1.2675   -0.0115    3.2538 H     1    ESP        -0.0104
   3207 H          -1.3903    0.4471    3.2538 H     1    ESP        -0.0102
   3208 H          -1.7261    0.7829    3.2538 H     1    ESP        -0.0100
   3209 H          -2.1848    0.9058    3.2538 H     1    ESP        -0.0101
   3210 H          -2.6434    0.7829    3.2538 H     1    ESP        -0.0104
   3211 H          -2.9792    0.4471    3.2538 H     1    ESP        -0.0106
   3212 H          -3.1021   -0.0115    3.2538 H     1    ESP        -0.0106
   3213 H          -2.9792   -0.4702    3.2538 H     1    ESP        -0.0106
   3214 H          -2.6434   -0.8060    3.2538 H     1    ESP        -0.0104
   3215 H          -2.1848   -0.9289    3.2538 H     1    ESP        -0.0101
   3216 H          -1.7261   -0.8060    3.2538 H     1    ESP        -0.0100
   3217 H          -1.3903   -0.4702    3.2538 H     1    ESP        -0.0102
   3218 H          -0.8302   -0.0115    3.0984 H     1    ESP        -0.0107
   3219 H          -0.9119    0.4517    3.0984 H     1    ESP        -0.0104
   3220 H          -1.1471    0.8591    3.0984 H     1    ESP        -0.0099
   3221 H          -1.5075    1.1615    3.0984 H     1    ESP        -0.0094
   3222 H          -1.9495    1.3224    3.0984 H     1    ESP        -0.0094
   3223 H          -2.4200    1.3224    3.0984 H     1    ESP        -0.0098
   3224 H          -2.8620    1.1615    3.0984 H     1    ESP        -0.0101
   3225 H          -3.2224    0.8591    3.0984 H     1    ESP        -0.0103
   3226 H          -3.4576    0.4517    3.0984 H     1    ESP        -0.0103
   3227 H          -3.5393   -0.0115    3.0984 H     1    ESP        -0.0103
   3228 H          -3.4576   -0.4748    3.0984 H     1    ESP        -0.0103
   3229 H          -3.2224   -0.8822    3.0984 H     1    ESP        -0.0103
   3230 H          -2.8620   -1.1846    3.0984 H     1    ESP        -0.0101
   3231 H          -2.4200   -1.3455    3.0984 H     1    ESP        -0.0098
   3232 H          -1.9495   -1.3455    3.0984 H     1    ESP        -0.0095
   3233 H          -1.5075   -1.1846    3.0984 H     1    ESP        -0.0094
   3234 H          -1.1471   -0.8822    3.0984 H     1    ESP        -0.0099
   3235 H          -0.9119   -0.4748    3.0984 H     1    ESP        -0.0104
   3236 H          -0.6549    0.8717    2.8849 H     1    ESP        -0.0104
   3237 H          -0.9356    1.2376    2.8849 H     1    ESP        -0.0093
   3238 H          -1.3015    1.5184    2.8849 H     1    ESP        -0.0085
   3239 H          -1.7275    1.6948    2.8849 H     1    ESP        -0.0084
   3240 H          -2.1848    1.7550    2.8849 H     1    ESP        -0.0088
   3241 H          -2.6420    1.6948    2.8849 H     1    ESP        -0.0093
   3242 H          -3.0681    1.5184    2.8849 H     1    ESP        -0.0097
   3243 H          -3.4339    1.2376    2.8849 H     1    ESP        -0.0099
   3244 H          -3.7147    0.8717    2.8849 H     1    ESP        -0.0099
   3245 H          -3.8912    0.4457    2.8849 H     1    ESP        -0.0099
   3246 H          -3.9513   -0.0115    2.8849 H     1    ESP        -0.0099
   3247 H          -3.8912   -0.4688    2.8849 H     1    ESP        -0.0099
   3248 H          -3.7147   -0.8948    2.8849 H     1    ESP        -0.0099
   3249 H          -3.4339   -1.2607    2.8849 H     1    ESP        -0.0099
   3250 H          -3.0681   -1.5415    2.8849 H     1    ESP        -0.0097
   3251 H          -2.6420   -1.7179    2.8849 H     1    ESP        -0.0093
   3252 H          -2.1848   -1.7781    2.8849 H     1    ESP        -0.0088
   3253 H          -1.7275   -1.7179    2.8849 H     1    ESP        -0.0084
   3254 H          -1.3015   -1.5415    2.8849 H     1    ESP        -0.0085
   3255 H          -0.9356   -1.2607    2.8849 H     1    ESP        -0.0092
   3256 H          -0.6549   -0.8948    2.8849 H     1    ESP        -0.0103
   3257 H          -1.1797    1.8842    2.6173 H     1    ESP        -0.0071
   3258 H          -1.6107    2.0559    2.6173 H     1    ESP        -0.0070
   3259 H          -2.0686    2.1310    2.6173 H     1    ESP        -0.0075
   3260 H          -2.5319    2.1059    2.6173 H     1    ESP        -0.0083
   3261 H          -2.9790    1.9818    2.6173 H     1    ESP        -0.0089
   3262 H          -3.3889    1.7644    2.6173 H     1    ESP        -0.0093
   3263 H          -3.7425    1.4640    2.6173 H     1    ESP        -0.0095
   3264 H          -4.0233    1.0947    2.6173 H     1    ESP        -0.0094
   3265 H          -4.2181    0.6736    2.6173 H     1    ESP        -0.0093
   3266 H          -4.3179    0.2204    2.6173 H     1    ESP        -0.0092
   3267 H          -4.3179   -0.2435    2.6173 H     1    ESP        -0.0092
   3268 H          -4.2181   -0.6967    2.6173 H     1    ESP        -0.0093
   3269 H          -4.0233   -1.1178    2.6173 H     1    ESP        -0.0094
   3270 H          -3.7425   -1.4871    2.6173 H     1    ESP        -0.0095
   3271 H          -3.3889   -1.7875    2.6173 H     1    ESP        -0.0093
   3272 H          -2.9790   -2.0049    2.6173 H     1    ESP        -0.0090
   3273 H          -2.5319   -2.1290    2.6173 H     1    ESP        -0.0083
   3274 H          -2.0686   -2.1541    2.6173 H     1    ESP        -0.0076
   3275 H          -1.6107   -2.0790    2.6173 H     1    ESP        -0.0070
   3276 H          -1.1797   -1.9073    2.6173 H     1    ESP        -0.0070
   3277 H          -1.5048    2.3784    2.3006 H     1    ESP        -0.0049
   3278 H          -1.9555    2.4627    2.3006 H     1    ESP        -0.0058
   3279 H          -2.4140    2.4627    2.3006 H     1    ESP        -0.0069
   3280 H          -2.8648    2.3784    2.3006 H     1    ESP        -0.0079
   3281 H          -3.2924    2.2128    2.3006 H     1    ESP        -0.0086
   3282 H          -3.6822    1.9714    2.3006 H     1    ESP        -0.0089
   3283 H          -4.0211    1.6625    2.3006 H     1    ESP        -0.0090
   3284 H          -4.2974    1.2966    2.3006 H     1    ESP        -0.0088
   3285 H          -4.5018    0.8861    2.3006 H     1    ESP        -0.0086
   3286 H          -4.6273    0.4450    2.3006 H     1    ESP        -0.0085
   3287 H          -4.6696   -0.0115    2.3006 H     1    ESP        -0.0084
   3288 H          -4.6273   -0.4681    2.3006 H     1    ESP        -0.0085
   3289 H          -4.5018   -0.9092    2.3006 H     1    ESP        -0.0086
   3290 H          -4.2974   -1.3196    2.3006 H     1    ESP        -0.0088
   3291 H          -4.0211   -1.6856    2.3006 H     1    ESP        -0.0090
   3292 H          -3.6822   -1.9945    2.3006 H     1    ESP        -0.0089
   3293 H          -3.2924   -2.2359    2.3006 H     1    ESP        -0.0086
   3294 H          -2.8648   -2.4015    2.3006 H     1    ESP        -0.0079
   3295 H          -2.4140   -2.4858    2.3006 H     1    ESP        -0.0070
   3296 H          -1.9555   -2.4858    2.3006 H     1    ESP        -0.0058
   3297 H          -1.5048   -2.4015    2.3006 H     1    ESP        -0.0049
   3298 H          -1.9554    2.7567    1.9406 H     1    ESP        -0.0038
   3299 H          -2.4141    2.7567    1.9406 H     1    ESP        -0.0055
   3300 H          -2.8666    2.6812    1.9406 H     1    ESP        -0.0069
   3301 H          -3.3005    2.5322    1.9406 H     1    ESP        -0.0078
   3302 H          -3.7040    2.3138    1.9406 H     1    ESP        -0.0083
   3303 H          -4.0660    2.0321    1.9406 H     1    ESP        -0.0085
   3304 H          -4.3768    1.6945    1.9406 H     1    ESP        -0.0084
   3305 H          -4.6277    1.3105    1.9406 H     1    ESP        -0.0081
   3306 H          -4.8120    0.8904    1.9406 H     1    ESP        -0.0079
   3307 H          -4.9246    0.4456    1.9406 H     1    ESP        -0.0077
   3308 H          -4.9625   -0.0115    1.9406 H     1    ESP        -0.0076
   3309 H          -4.9246   -0.4687    1.9406 H     1    ESP        -0.0077
   3310 H          -4.8120   -0.9135    1.9406 H     1    ESP        -0.0079
   3311 H          -4.6277   -1.3336    1.9406 H     1    ESP        -0.0081
   3312 H          -4.3768   -1.7176    1.9406 H     1    ESP        -0.0084
   3313 H          -4.0660   -2.0552    1.9406 H     1    ESP        -0.0085
   3314 H          -3.7040   -2.3369    1.9406 H     1    ESP        -0.0083
   3315 H          -3.3005   -2.5553    1.9406 H     1    ESP        -0.0079
   3316 H          -2.8666   -2.7042    1.9406 H     1    ESP        -0.0070
   3317 H          -2.4141   -2.7798    1.9406 H     1    ESP        -0.0056
   3318 H          -1.9554   -2.7798    1.9406 H     1    ESP        -0.0040
   3319 H          -2.0691    3.0050    1.5441 H     1    ESP        -0.0022
   3320 H          -2.5310    2.9873    1.5441 H     1    ESP        -0.0045
   3321 H          -2.9847    2.8994    1.5441 H     1    ESP        -0.0062
   3322 H          -3.4197    2.7431    1.5441 H     1    ESP        -0.0073
   3323 H          -3.8257    2.5223    1.5441 H     1    ESP        -0.0079
   3324 H          -4.1933    2.2422    1.5441 H     1    ESP        -0.0080
   3325 H          -4.5137    1.9091    1.5441 H     1    ESP        -0.0079
   3326 H          -4.7796    1.5311    1.5441 H     1    ESP        -0.0076
   3327 H          -4.9847    1.1169    1.5441 H     1    ESP        -0.0073
   3328 H          -5.1242    0.6763    1.5441 H     1    ESP        -0.0070
   3329 H          -5.1947    0.2195    1.5441 H     1    ESP        -0.0068
   3330 H          -5.1947   -0.2426    1.5441 H     1    ESP        -0.0068
   3331 H          -5.1242   -0.6994    1.5441 H     1    ESP        -0.0070
   3332 H          -4.9847   -1.1400    1.5441 H     1    ESP        -0.0073
   3333 H          -4.7796   -1.5542    1.5441 H     1    ESP        -0.0076
   3334 H          -4.5137   -1.9322    1.5441 H     1    ESP        -0.0079
   3335 H          -4.1933   -2.2652    1.5441 H     1    ESP        -0.0080
   3336 H          -3.8257   -2.5454    1.5441 H     1    ESP        -0.0079
   3337 H          -3.4197   -2.7662    1.5441 H     1    ESP        -0.0073
   3338 H          -2.9847   -2.9224    1.5441 H     1    ESP        -0.0063
   3339 H          -2.5310   -3.0104    1.5441 H     1    ESP        -0.0047
   3340 H          -2.0691   -3.0281    1.5441 H     1    ESP        -0.0024
   3341 H          -2.1848    3.1921    1.1185 H     1    ESP        -0.0010
   3342 H          -2.6407    3.1595    1.1185 H     1    ESP        -0.0038
   3343 H          -3.0873    3.0624    1.1185 H     1    ESP        -0.0057
   3344 H          -3.5156    2.9026    1.1185 H     1    ESP        -0.0069
   3345 H          -3.9168    2.6836    1.1185 H     1    ESP        -0.0075
   3346 H          -4.2827    2.4096    1.1185 H     1    ESP        -0.0076
   3347 H          -4.6059    2.0864    1.1185 H     1    ESP        -0.0075
   3348 H          -4.8799    1.7205    1.1185 H     1    ESP        -0.0072
   3349 H          -5.0989    1.3193    1.1185 H     1    ESP        -0.0068
   3350 H          -5.2587    0.8910    1.1185 H     1    ESP        -0.0065
   3351 H          -5.3558    0.4444    1.1185 H     1    ESP        -0.0062
   3352 H          -5.3884   -0.0115    1.1185 H     1    ESP        -0.0061
   3353 H          -5.3558   -0.4675    1.1185 H     1    ESP        -0.0062
   3354 H          -5.2587   -0.9141    1.1185 H     1    ESP        -0.0064
   3355 H          -5.0989   -1.3424    1.1185 H     1    ESP        -0.0068
   3356 H          -4.8799   -1.7436    1.1185 H     1    ESP        -0.0072
   3357 H          -4.6059   -2.1095    1.1185 H     1    ESP        -0.0075
   3358 H          -4.2827   -2.4327    1.1185 H     1    ESP        -0.0076
   3359 H          -3.9168   -2.7067    1.1185 H     1    ESP        -0.0075
   3360 H          -3.5156   -2.9257    1.1185 H     1    ESP        -0.0069
   3361 H          -3.0873   -3.0855    1.1185 H     1    ESP        -0.0058
   3362 H          -2.6407   -3.1826    1.1185 H     1    ESP        -0.0040
   3363 H          -2.1848   -3.2152    1.1185 H     1    ESP        -0.0013
   3364 H          -2.4119    3.3096    0.6716 H     1    ESP        -0.0013
   3365 H          -2.8620    3.2477    0.6716 H     1    ESP        -0.0040
   3366 H          -3.2995    3.1251    0.6716 H     1    ESP        -0.0058
   3367 H          -3.7163    2.9441    0.6716 H     1    ESP        -0.0068
   3368 H          -4.1045    2.7081    0.6716 H     1    ESP        -0.0073
   3369 H          -4.4569    2.4213    0.6716 H     1    ESP        -0.0073
   3370 H          -4.7670    2.0893    0.6716 H     1    ESP        -0.0071
   3371 H          -5.0290    1.7181    0.6716 H     1    ESP        -0.0068
   3372 H          -5.2381    1.3147    0.6716 H     1    ESP        -0.0064
   3373 H          -5.3902    0.8866    0.6716 H     1    ESP        -0.0060
   3374 H          -5.4826    0.4417    0.6716 H     1    ESP        -0.0057
   3375 H          -5.5136   -0.0115    0.6716 H     1    ESP        -0.0056
   3376 H          -5.4826   -0.4648    0.6716 H     1    ESP        -0.0057
   3377 H          -5.3902   -0.9097    0.6716 H     1    ESP        -0.0060
   3378 H          -5.2381   -1.3378    0.6716 H     1    ESP        -0.0063
   3379 H          -5.0290   -1.7412    0.6716 H     1    ESP        -0.0067
   3380 H          -4.7670   -2.1124    0.6716 H     1    ESP        -0.0071
   3381 H          -4.4569   -2.4444    0.6716 H     1    ESP        -0.0073
   3382 H          -4.1045   -2.7311    0.6716 H     1    ESP        -0.0073
   3383 H          -3.7163   -2.9672    0.6716 H     1    ESP        -0.0069
   3384 H          -3.2995   -3.1482    0.6716 H     1    ESP        -0.0059
   3385 H          -2.8620   -3.2708    0.6716 H     1    ESP        -0.0042
   3386 H          -2.4119   -3.3327    0.6716 H     1    ESP        -0.0016
   3387 H          -2.4162    3.3726    0.2119 H     1    ESP        -0.0006
   3388 H          -2.8749    3.3096    0.2119 H     1    ESP        -0.0037
   3389 H          -3.3207    3.1847    0.2119 H     1    ESP        -0.0056
   3390 H          -3.7453    3.0002    0.2119 H     1    ESP        -0.0067
   3391 H          -4.1409    2.7597    0.2119 H     1    ESP        -0.0072
   3392 H          -4.5000    2.4675    0.2119 H     1    ESP        -0.0072
   3393 H          -4.8160    2.1291    0.2119 H     1    ESP        -0.0070
   3394 H          -5.0830    1.7509    0.2119 H     1    ESP        -0.0066
   3395 H          -5.2960    1.3399    0.2119 H     1    ESP        -0.0061
   3396 H          -5.4510    0.9036    0.2119 H     1    ESP        -0.0057
   3397 H          -5.5452    0.4503    0.2119 H     1    ESP        -0.0055
   3398 H          -5.5768   -0.0115    0.2119 H     1    ESP        -0.0054
   3399 H          -5.5452   -0.4734    0.2119 H     1    ESP        -0.0055
   3400 H          -5.4510   -0.9267    0.2119 H     1    ESP        -0.0057
   3401 H          -5.2960   -1.3630    0.2119 H     1    ESP        -0.0061
   3402 H          -5.0830   -1.7740    0.2119 H     1    ESP        -0.0065
   3403 H          -4.8160   -2.1522    0.2119 H     1    ESP        -0.0069
   3404 H          -4.5000   -2.4906    0.2119 H     1    ESP        -0.0072
   3405 H          -4.1409   -2.7828    0.2119 H     1    ESP        -0.0072
   3406 H          -3.7453   -3.0233    0.2119 H     1    ESP        -0.0067
   3407 H          -3.3207   -3.2078    0.2119 H     1    ESP        -0.0057
   3408 H          -2.8749   -3.3327    0.2119 H     1    ESP        -0.0039
   3409 H          -2.4162   -3.3957    0.2119 H     1    ESP        -0.0009
   3410 H          -2.4162    3.3726   -0.2521 H     1    ESP        -0.0007
   3411 H          -2.8749    3.3096   -0.2521 H     1    ESP        -0.0037
   3412 H          -3.3207    3.1847   -0.2521 H     1    ESP        -0.0056
   3413 H          -3.7453    3.0002   -0.2521 H     1    ESP        -0.0067
   3414 H          -4.1409    2.7597   -0.2521 H     1    ESP        -0.0071
   3415 H          -4.5000    2.4675   -0.2521 H     1    ESP        -0.0072
   3416 H          -4.8160    2.1291   -0.2521 H     1    ESP        -0.0070
   3417 H          -5.0830    1.7509   -0.2521 H     1    ESP        -0.0066
   3418 H          -5.2960    1.3399   -0.2521 H     1    ESP        -0.0061
   3419 H          -5.4510    0.9036   -0.2521 H     1    ESP        -0.0057
   3420 H          -5.5452    0.4503   -0.2521 H     1    ESP        -0.0055
   3421 H          -5.5768   -0.0115   -0.2521 H     1    ESP        -0.0054
   3422 H          -5.5452   -0.4734   -0.2521 H     1    ESP        -0.0054
   3423 H          -5.4510   -0.9267   -0.2521 H     1    ESP        -0.0057
   3424 H          -5.2960   -1.3630   -0.2521 H     1    ESP        -0.0061
   3425 H          -5.0830   -1.7740   -0.2521 H     1    ESP        -0.0065
   3426 H          -4.8160   -2.1522   -0.2521 H     1    ESP        -0.0069
   3427 H          -4.5000   -2.4906   -0.2521 H     1    ESP        -0.0072
   3428 H          -4.1409   -2.7828   -0.2521 H     1    ESP        -0.0072
   3429 H          -3.7453   -3.0233   -0.2521 H     1    ESP        -0.0067
   3430 H          -3.3207   -3.2078   -0.2521 H     1    ESP        -0.0057
   3431 H          -2.8749   -3.3327   -0.2521 H     1    ESP        -0.0039
   3432 H          -2.4162   -3.3957   -0.2521 H     1    ESP        -0.0010
   3433 H          -2.4119    3.3096   -0.7119 H     1    ESP        -0.0014
   3434 H          -2.8620    3.2477   -0.7119 H     1    ESP        -0.0041
   3435 H          -3.2995    3.1251   -0.7119 H     1    ESP        -0.0058
   3436 H          -3.7163    2.9441   -0.7119 H     1    ESP        -0.0068
   3437 H          -4.1045    2.7081   -0.7119 H     1    ESP        -0.0073
   3438 H          -4.4569    2.4213   -0.7119 H     1    ESP        -0.0073
   3439 H          -4.7670    2.0893   -0.7119 H     1    ESP        -0.0071
   3440 H          -5.0290    1.7181   -0.7119 H     1    ESP        -0.0067
   3441 H          -5.2381    1.3147   -0.7119 H     1    ESP        -0.0063
   3442 H          -5.3902    0.8866   -0.7119 H     1    ESP        -0.0059
   3443 H          -5.4826    0.4417   -0.7119 H     1    ESP        -0.0057
   3444 H          -5.5136   -0.0115   -0.7119 H     1    ESP        -0.0056
   3445 H          -5.4826   -0.4648   -0.7119 H     1    ESP        -0.0057
   3446 H          -5.3902   -0.9097   -0.7119 H     1    ESP        -0.0059
   3447 H          -5.2381   -1.3378   -0.7119 H     1    ESP        -0.0063
   3448 H          -5.0290   -1.7412   -0.7119 H     1    ESP        -0.0067
   3449 H          -4.7670   -2.1124   -0.7119 H     1    ESP        -0.0071
   3450 H          -4.4569   -2.4444   -0.7119 H     1    ESP        -0.0073
   3451 H          -4.1045   -2.7311   -0.7119 H     1    ESP        -0.0073
   3452 H          -3.7163   -2.9672   -0.7119 H     1    ESP        -0.0069
   3453 H          -3.2995   -3.1482   -0.7119 H     1    ESP        -0.0059
   3454 H          -2.8620   -3.2708   -0.7119 H     1    ESP        -0.0043
   3455 H          -2.4119   -3.3327   -0.7119 H     1    ESP        -0.0016
   3456 H          -2.1848    3.1921   -1.1587 H     1    ESP        -0.0012
   3457 H          -2.6407    3.1595   -1.1587 H     1    ESP        -0.0039
   3458 H          -3.0873    3.0624   -1.1587 H     1    ESP        -0.0057
   3459 H          -3.5156    2.9026   -1.1587 H     1    ESP        -0.0069
   3460 H          -3.9168    2.6836   -1.1587 H     1    ESP        -0.0075
   3461 H          -4.2827    2.4096   -1.1587 H     1    ESP        -0.0076
   3462 H          -4.6059    2.0864   -1.1587 H     1    ESP        -0.0075
   3463 H          -4.8799    1.7205   -1.1587 H     1    ESP        -0.0071
   3464 H          -5.0989    1.3193   -1.1587 H     1    ESP        -0.0067
   3465 H          -5.2587    0.8910   -1.1587 H     1    ESP        -0.0064
   3466 H          -5.3558    0.4444   -1.1587 H     1    ESP        -0.0061
   3467 H          -5.3884   -0.0115   -1.1587 H     1    ESP        -0.0061
   3468 H          -5.3558   -0.4675   -1.1587 H     1    ESP        -0.0061
   3469 H          -5.2587   -0.9141   -1.1587 H     1    ESP        -0.0064
   3470 H          -5.0989   -1.3424   -1.1587 H     1    ESP        -0.0067
   3471 H          -4.8799   -1.7436   -1.1587 H     1    ESP        -0.0071
   3472 H          -4.6059   -2.1095   -1.1587 H     1    ESP        -0.0074
   3473 H          -4.2827   -2.4327   -1.1587 H     1    ESP        -0.0076
   3474 H          -3.9168   -2.7067   -1.1587 H     1    ESP        -0.0075
   3475 H          -3.5156   -2.9257   -1.1587 H     1    ESP        -0.0069
   3476 H          -3.0873   -3.0855   -1.1587 H     1    ESP        -0.0058
   3477 H          -2.6407   -3.1826   -1.1587 H     1    ESP        -0.0040
   3478 H          -2.1848   -3.2152   -1.1587 H     1    ESP        -0.0014
   3479 H          -2.0691    3.0050   -1.5843 H     1    ESP        -0.0024
   3480 H          -2.5310    2.9873   -1.5843 H     1    ESP        -0.0046
   3481 H          -2.9847    2.8994   -1.5843 H     1    ESP        -0.0063
   3482 H          -3.4197    2.7431   -1.5843 H     1    ESP        -0.0073
   3483 H          -3.8257    2.5223   -1.5843 H     1    ESP        -0.0078
   3484 H          -4.1933    2.2422   -1.5843 H     1    ESP        -0.0080
   3485 H          -4.5137    1.9091   -1.5843 H     1    ESP        -0.0078
   3486 H          -4.7796    1.5311   -1.5843 H     1    ESP        -0.0075
   3487 H          -4.9847    1.1169   -1.5843 H     1    ESP        -0.0072
   3488 H          -5.1242    0.6763   -1.5843 H     1    ESP        -0.0069
   3489 H          -5.1947    0.2195   -1.5843 H     1    ESP        -0.0067
   3490 H          -5.1947   -0.2426   -1.5843 H     1    ESP        -0.0067
   3491 H          -5.1242   -0.6994   -1.5843 H     1    ESP        -0.0069
   3492 H          -4.9847   -1.1400   -1.5843 H     1    ESP        -0.0072
   3493 H          -4.7796   -1.5542   -1.5843 H     1    ESP        -0.0075
   3494 H          -4.5137   -1.9322   -1.5843 H     1    ESP        -0.0078
   3495 H          -4.1933   -2.2652   -1.5843 H     1    ESP        -0.0080
   3496 H          -3.8257   -2.5454   -1.5843 H     1    ESP        -0.0079
   3497 H          -3.4197   -2.7662   -1.5843 H     1    ESP        -0.0074
   3498 H          -2.9847   -2.9224   -1.5843 H     1    ESP        -0.0064
   3499 H          -2.5310   -3.0104   -1.5843 H     1    ESP        -0.0048
   3500 H          -2.0691   -3.0281   -1.5843 H     1    ESP        -0.0026
   3501 H          -1.9554    2.7567   -1.9808 H     1    ESP        -0.0040
   3502 H          -2.4141    2.7567   -1.9808 H     1    ESP        -0.0056
   3503 H          -2.8666    2.6812   -1.9808 H     1    ESP        -0.0069
   3504 H          -3.3005    2.5322   -1.9808 H     1    ESP        -0.0078
   3505 H          -3.7040    2.3138   -1.9808 H     1    ESP        -0.0083
   3506 H          -4.0660    2.0321   -1.9808 H     1    ESP        -0.0084
   3507 H          -4.3768    1.6945   -1.9808 H     1    ESP        -0.0083
   3508 H          -4.6277    1.3105   -1.9808 H     1    ESP        -0.0080
   3509 H          -4.8120    0.8904   -1.9808 H     1    ESP        -0.0078
   3510 H          -4.9246    0.4456   -1.9808 H     1    ESP        -0.0076
   3511 H          -4.9625   -0.0115   -1.9808 H     1    ESP        -0.0075
   3512 H          -4.9246   -0.4687   -1.9808 H     1    ESP        -0.0076
   3513 H          -4.8120   -0.9135   -1.9808 H     1    ESP        -0.0078
   3514 H          -4.6277   -1.3336   -1.9808 H     1    ESP        -0.0080
   3515 H          -4.3768   -1.7176   -1.9808 H     1    ESP        -0.0083
   3516 H          -4.0660   -2.0552   -1.9808 H     1    ESP        -0.0084
   3517 H          -3.7040   -2.3369   -1.9808 H     1    ESP        -0.0083
   3518 H          -3.3005   -2.5553   -1.9808 H     1    ESP        -0.0079
   3519 H          -2.8666   -2.7042   -1.9808 H     1    ESP        -0.0070
   3520 H          -2.4141   -2.7798   -1.9808 H     1    ESP        -0.0057
   3521 H          -1.9554   -2.7798   -1.9808 H     1    ESP        -0.0041
   3522 H          -1.5048    2.3784   -2.3408 H     1    ESP        -0.0050
   3523 H          -1.9555    2.4627   -2.3408 H     1    ESP        -0.0059
   3524 H          -2.4140    2.4627   -2.3408 H     1    ESP        -0.0070
   3525 H          -2.8648    2.3784   -2.3408 H     1    ESP        -0.0079
   3526 H          -3.2924    2.2128   -2.3408 H     1    ESP        -0.0086
   3527 H          -3.6822    1.9714   -2.3408 H     1    ESP        -0.0089
   3528 H          -4.0211    1.6625   -2.3408 H     1    ESP        -0.0089
   3529 H          -4.2974    1.2966   -2.3408 H     1    ESP        -0.0088
   3530 H          -4.5018    0.8861   -2.3408 H     1    ESP        -0.0085
   3531 H          -4.6273    0.4450   -2.3408 H     1    ESP        -0.0084
   3532 H          -4.6696   -0.0115   -2.3408 H     1    ESP        -0.0083
   3533 H          -4.6273   -0.4681   -2.3408 H     1    ESP        -0.0084
   3534 H          -4.5018   -0.9092   -2.3408 H     1    ESP        -0.0085
   3535 H          -4.2974   -1.3196   -2.3408 H     1    ESP        -0.0087
   3536 H          -4.0211   -1.6856   -2.3408 H     1    ESP        -0.0089
   3537 H          -3.6822   -1.9945   -2.3408 H     1    ESP        -0.0089
   3538 H          -3.2924   -2.2359   -2.3408 H     1    ESP        -0.0086
   3539 H          -2.8648   -2.4015   -2.3408 H     1    ESP        -0.0080
   3540 H          -2.4140   -2.4858   -2.3408 H     1    ESP        -0.0070
   3541 H          -1.9555   -2.4858   -2.3408 H     1    ESP        -0.0060
   3542 H          -1.5048   -2.4015   -2.3408 H     1    ESP        -0.0051
   3543 H          -1.1797    1.8842   -2.6575 H     1    ESP        -0.0071
   3544 H          -1.6107    2.0559   -2.6575 H     1    ESP        -0.0071
   3545 H          -2.0686    2.1310   -2.6575 H     1    ESP        -0.0076
   3546 H          -2.5319    2.1059   -2.6575 H     1    ESP        -0.0083
   3547 H          -2.9790    1.9818   -2.6575 H     1    ESP        -0.0089
   3548 H          -3.3889    1.7644   -2.6575 H     1    ESP        -0.0093
   3549 H          -3.7425    1.4640   -2.6575 H     1    ESP        -0.0094
   3550 H          -4.0233    1.0947   -2.6575 H     1    ESP        -0.0093
   3551 H          -4.2181    0.6736   -2.6575 H     1    ESP        -0.0092
   3552 H          -4.3179    0.2204   -2.6575 H     1    ESP        -0.0091
   3553 H          -4.3179   -0.2435   -2.6575 H     1    ESP        -0.0091
   3554 H          -4.2181   -0.6967   -2.6575 H     1    ESP        -0.0092
   3555 H          -4.0233   -1.1178   -2.6575 H     1    ESP        -0.0093
   3556 H          -3.7425   -1.4871   -2.6575 H     1    ESP        -0.0094
   3557 H          -3.3889   -1.7875   -2.6575 H     1    ESP        -0.0093
   3558 H          -2.9790   -2.0049   -2.6575 H     1    ESP        -0.0090
   3559 H          -2.5319   -2.1290   -2.6575 H     1    ESP        -0.0084
   3560 H          -2.0686   -2.1541   -2.6575 H     1    ESP        -0.0076
   3561 H          -1.6107   -2.0790   -2.6575 H     1    ESP        -0.0071
   3562 H          -1.1797   -1.9073   -2.6575 H     1    ESP        -0.0071
   3563 H          -0.6549    0.8717   -2.9251 H     1    ESP        -0.0103
   3564 H          -0.9356    1.2376   -2.9251 H     1    ESP        -0.0093
   3565 H          -1.3015    1.5184   -2.9251 H     1    ESP        -0.0086
   3566 H          -1.7275    1.6948   -2.9251 H     1    ESP        -0.0085
   3567 H          -2.1848    1.7550   -2.9251 H     1    ESP        -0.0088
   3568 H          -2.6420    1.6948   -2.9251 H     1    ESP        -0.0093
   3569 H          -3.0681    1.5184   -2.9251 H     1    ESP        -0.0097
   3570 H          -3.4339    1.2376   -2.9251 H     1    ESP        -0.0099
   3571 H          -3.7147    0.8717   -2.9251 H     1    ESP        -0.0099
   3572 H          -3.8912    0.4457   -2.9251 H     1    ESP        -0.0098
   3573 H          -3.9513   -0.0115   -2.9251 H     1    ESP        -0.0098
   3574 H          -3.8912   -0.4688   -2.9251 H     1    ESP        -0.0098
   3575 H          -3.7147   -0.8948   -2.9251 H     1    ESP        -0.0099
   3576 H          -3.4339   -1.2607   -2.9251 H     1    ESP        -0.0099
   3577 H          -3.0681   -1.5415   -2.9251 H     1    ESP        -0.0097
   3578 H          -2.6420   -1.7179   -2.9251 H     1    ESP        -0.0093
   3579 H          -2.1848   -1.7781   -2.9251 H     1    ESP        -0.0088
   3580 H          -1.7275   -1.7179   -2.9251 H     1    ESP        -0.0085
   3581 H          -1.3015   -1.5415   -2.9251 H     1    ESP        -0.0085
   3582 H          -0.9356   -1.2607   -2.9251 H     1    ESP        -0.0092
   3583 H          -0.6549   -0.8948   -2.9251 H     1    ESP        -0.0102
   3584 H          -0.8302   -0.0115   -3.1386 H     1    ESP        -0.0106
   3585 H          -0.9119    0.4517   -3.1386 H     1    ESP        -0.0104
   3586 H          -1.1471    0.8591   -3.1386 H     1    ESP        -0.0099
   3587 H          -1.5075    1.1615   -3.1386 H     1    ESP        -0.0095
   3588 H          -1.9495    1.3224   -3.1386 H     1    ESP        -0.0095
   3589 H          -2.4200    1.3224   -3.1386 H     1    ESP        -0.0098
   3590 H          -2.8620    1.1615   -3.1386 H     1    ESP        -0.0101
   3591 H          -3.2224    0.8591   -3.1386 H     1    ESP        -0.0103
   3592 H          -3.4576    0.4517   -3.1386 H     1    ESP        -0.0103
   3593 H          -3.5393   -0.0115   -3.1386 H     1    ESP        -0.0103
   3594 H          -3.4576   -0.4748   -3.1386 H     1    ESP        -0.0103
   3595 H          -3.2224   -0.8822   -3.1386 H     1    ESP        -0.0103
   3596 H          -2.8620   -1.1846   -3.1386 H     1    ESP        -0.0101
   3597 H          -2.4200   -1.3455   -3.1386 H     1    ESP        -0.0098
   3598 H          -1.9495   -1.3455   -3.1386 H     1    ESP        -0.0095
   3599 H          -1.5075   -1.1846   -3.1386 H     1    ESP        -0.0095
   3600 H          -1.1471   -0.8822   -3.1386 H     1    ESP        -0.0098
   3601 H          -0.9119   -0.4748   -3.1386 H     1    ESP        -0.0104
   3602 H          -1.2675   -0.0115   -3.2940 H     1    ESP        -0.0104
   3603 H          -1.3903    0.4471   -3.2940 H     1    ESP        -0.0102
   3604 H          -1.7261    0.7829   -3.2940 H     1    ESP        -0.0101
   3605 H          -2.1848    0.9058   -3.2940 H     1    ESP        -0.0102
   3606 H          -2.6434    0.7829   -3.2940 H     1    ESP        -0.0104
   3607 H          -2.9792    0.4471   -3.2940 H     1    ESP        -0.0105
   3608 H          -3.1021   -0.0115   -3.2940 H     1    ESP        -0.0106
   3609 H          -2.9792   -0.4702   -3.2940 H     1    ESP        -0.0105
   3610 H          -2.6434   -0.8060   -3.2940 H     1    ESP        -0.0104
   3611 H          -2.1848   -0.9289   -3.2940 H     1    ESP        -0.0102
   3612 H          -1.7261   -0.8060   -3.2940 H     1    ESP        -0.0101
   3613 H          -1.3903   -0.4702   -3.2940 H     1    ESP        -0.0102
   3614 H          -1.7218   -0.0115   -3.3885 H     1    ESP        -0.0104
   3615 H          -1.9533    0.3894   -3.3885 H     1    ESP        -0.0104
   3616 H          -2.4162    0.3894   -3.3885 H     1    ESP        -0.0106
   3617 H          -2.6477   -0.0115   -3.3885 H     1    ESP        -0.0107
   3618 H          -2.4162   -0.4125   -3.3885 H     1    ESP        -0.0106
   3619 H          -1.9533   -0.4125   -3.3885 H     1    ESP        -0.0104
   3620 H          -2.1848   -0.0115   -3.4201 H     1    ESP        -0.0106
   3621 H          -1.3055   -3.0074    1.9920 H     1    ESP        -0.0005
   3622 H          -0.9507   -3.3051    1.9920 H     1    ESP         0.0015
   3623 H          -0.5156   -3.4634    1.9920 H     1    ESP         0.0027
   3624 H          -0.0525   -3.4634    1.9920 H     1    ESP         0.0032
   3625 H          -1.6005   -3.2213    1.6936 H     1    ESP         0.0003
   3626 H          -1.2627   -3.5368    1.6936 H     1    ESP         0.0024
   3627 H          -0.8523   -3.7494    1.6936 H     1    ESP         0.0039
   3628 H          -0.3998   -3.8434    1.6936 H     1    ESP         0.0048
   3629 H           0.0612   -3.8119    1.6936 H     1    ESP         0.0054
   3630 H          -1.9513   -3.2469    1.3299 H     1    ESP        -0.0002
   3631 H          -1.6534   -3.6018    1.3299 H     1    ESP         0.0023
   3632 H          -1.2818   -3.8785    1.3299 H     1    ESP         0.0041
   3633 H          -0.8564   -4.0620    1.3299 H     1    ESP         0.0054
   3634 H          -0.4001   -4.1425    1.3299 H     1    ESP         0.0064
   3635 H           0.0625   -4.1155    1.3299 H     1    ESP         0.0071
   3636 H           0.5064   -3.9826    1.3299 H     1    ESP         0.0078
   3637 H          -2.0779   -3.4536    0.9149 H     1    ESP         0.0008
   3638 H          -1.7677   -3.7981    0.9149 H     1    ESP         0.0031
   3639 H          -1.3927   -4.0706    0.9149 H     1    ESP         0.0049
   3640 H          -0.9692   -4.2591    0.9149 H     1    ESP         0.0062
   3641 H          -0.5158   -4.3555    0.9149 H     1    ESP         0.0072
   3642 H          -0.0523   -4.3555    0.9149 H     1    ESP         0.0081
   3643 H           0.4012   -4.2591    0.9149 H     1    ESP         0.0090
   3644 H           0.8246   -4.0706    0.9149 H     1    ESP         0.0101
   3645 H          -2.2412   -3.4581    0.4647 H     1    ESP         0.0004
   3646 H          -1.9485   -3.8148    0.4647 H     1    ESP         0.0030
   3647 H          -1.5918   -4.1075    0.4647 H     1    ESP         0.0048
   3648 H          -1.1848   -4.3250    0.4647 H     1    ESP         0.0063
   3649 H          -0.7433   -4.4590    0.4647 H     1    ESP         0.0074
   3650 H          -0.2840   -4.5042    0.4647 H     1    ESP         0.0083
   3651 H           0.1752   -4.4590    0.4647 H     1    ESP         0.0093
   3652 H           0.6168   -4.3250    0.4647 H     1    ESP         0.0104
   3653 H          -2.1706   -3.6339   -0.0035 H     1    ESP         0.0016
   3654 H          -1.8557   -3.9641   -0.0035 H     1    ESP         0.0038
   3655 H          -1.4840   -4.2288   -0.0035 H     1    ESP         0.0055
   3656 H          -1.0690   -4.4183   -0.0035 H     1    ESP         0.0068
   3657 H          -0.6256   -4.5259   -0.0035 H     1    ESP         0.0079
   3658 H          -0.1698   -4.5476   -0.0035 H     1    ESP         0.0088
   3659 H           0.2818   -4.4827   -0.0035 H     1    ESP         0.0098
   3660 H           0.7130   -4.3334   -0.0035 H     1    ESP         0.0110
   3661 H          -2.2412   -3.4581   -0.4717 H     1    ESP         0.0004
   3662 H          -1.9485   -3.8148   -0.4717 H     1    ESP         0.0030
   3663 H          -1.5918   -4.1075   -0.4717 H     1    ESP         0.0048
   3664 H          -1.1848   -4.3250   -0.4717 H     1    ESP         0.0063
   3665 H          -0.7433   -4.4590   -0.4717 H     1    ESP         0.0074
   3666 H          -0.2840   -4.5042   -0.4717 H     1    ESP         0.0083
   3667 H           0.1752   -4.4590   -0.4717 H     1    ESP         0.0093
   3668 H           0.6168   -4.3250   -0.4717 H     1    ESP         0.0104
   3669 H          -2.0779   -3.4536   -0.9219 H     1    ESP         0.0007
   3670 H          -1.7677   -3.7981   -0.9219 H     1    ESP         0.0031
   3671 H          -1.3927   -4.0706   -0.9219 H     1    ESP         0.0049
   3672 H          -0.9692   -4.2591   -0.9219 H     1    ESP         0.0062
   3673 H          -0.5158   -4.3555   -0.9219 H     1    ESP         0.0072
   3674 H          -0.0523   -4.3555   -0.9219 H     1    ESP         0.0081
   3675 H           0.4012   -4.2591   -0.9219 H     1    ESP         0.0090
   3676 H           0.8246   -4.0706   -0.9219 H     1    ESP         0.0100
   3677 H          -1.9513   -3.2469   -1.3369 H     1    ESP        -0.0002
   3678 H          -1.6534   -3.6018   -1.3369 H     1    ESP         0.0023
   3679 H          -1.2818   -3.8785   -1.3369 H     1    ESP         0.0041
   3680 H          -0.8564   -4.0620   -1.3369 H     1    ESP         0.0054
   3681 H          -0.4001   -4.1425   -1.3369 H     1    ESP         0.0063
   3682 H           0.0625   -4.1155   -1.3369 H     1    ESP         0.0071
   3683 H           0.5064   -3.9826   -1.3369 H     1    ESP         0.0077
   3684 H          -1.6005   -3.2213   -1.7006 H     1    ESP         0.0003
   3685 H          -1.2627   -3.5368   -1.7006 H     1    ESP         0.0024
   3686 H          -0.8523   -3.7494   -1.7006 H     1    ESP         0.0038
   3687 H          -0.3998   -3.8434   -1.7006 H     1    ESP         0.0048
   3688 H           0.0612   -3.8119   -1.7006 H     1    ESP         0.0054
   3689 H          -1.3055   -3.0074   -1.9990 H     1    ESP        -0.0005
   3690 H          -0.9507   -3.3051   -1.9990 H     1    ESP         0.0015
   3691 H          -0.5156   -3.4634   -1.9990 H     1    ESP         0.0027
   3692 H          -0.0525   -3.4634   -1.9990 H     1    ESP         0.0032
   3693 H           1.9722   -3.4534    2.0144 H     1    ESP         0.0052
   3694 H           2.4353   -3.4534    2.0144 H     1    ESP         0.0059
   3695 H           2.8704   -3.2950    2.0144 H     1    ESP         0.0063
   3696 H           3.2252   -2.9973    2.0144 H     1    ESP         0.0062
   3697 H           3.4567   -2.5963    2.0144 H     1    ESP         0.0058
   3698 H           1.6354   -3.7393    1.7159 H     1    ESP         0.0068
   3699 H           2.0879   -3.8333    1.7159 H     1    ESP         0.0073
   3700 H           2.5490   -3.8018    1.7159 H     1    ESP         0.0077
   3701 H           2.9845   -3.6470    1.7159 H     1    ESP         0.0080
   3702 H           3.3621   -3.3805    1.7159 H     1    ESP         0.0080
   3703 H           3.6537   -3.0220    1.7159 H     1    ESP         0.0079
   3704 H           3.8379   -2.5981    1.7159 H     1    ESP         0.0077
   3705 H           4.1993   -2.1402    1.3522 H     1    ESP         0.0095
   3706 H           1.2060   -3.8684    1.3522 H     1    ESP         0.0084
   3707 H           1.6314   -4.0519    1.3522 H     1    ESP         0.0086
   3708 H           2.0877   -4.1324    1.3522 H     1    ESP         0.0088
   3709 H           2.5503   -4.1055    1.3522 H     1    ESP         0.0090
   3710 H           2.9941   -3.9726    1.3522 H     1    ESP         0.0092
   3711 H           3.3954   -3.7409    1.3522 H     1    ESP         0.0093
   3712 H           3.7324   -3.4229    1.3522 H     1    ESP         0.0094
   3713 H           3.9870   -3.0358    1.3522 H     1    ESP         0.0094
   3714 H           4.1455   -2.6004    1.3522 H     1    ESP         0.0094
   3715 H           4.4211   -2.1402    0.9373 H     1    ESP         0.0113
   3716 H           1.0951   -4.0605    0.9373 H     1    ESP         0.0103
   3717 H           1.5186   -4.2490    0.9373 H     1    ESP         0.0099
   3718 H           1.9720   -4.3454    0.9373 H     1    ESP         0.0098
   3719 H           2.4355   -4.3454    0.9373 H     1    ESP         0.0099
   3720 H           2.8889   -4.2490    0.9373 H     1    ESP         0.0100
   3721 H           3.3124   -4.0605    0.9373 H     1    ESP         0.0102
   3722 H           3.6874   -3.7880    0.9373 H     1    ESP         0.0103
   3723 H           3.9976   -3.4435    0.9373 H     1    ESP         0.0103
   3724 H           4.2294   -3.0421    0.9373 H     1    ESP         0.0105
   3725 H           4.3726   -2.6012    0.9373 H     1    ESP         0.0107
   3726 H           4.5576   -2.1402    0.4871 H     1    ESP         0.0125
   3727 H           1.3029   -4.3149    0.4871 H     1    ESP         0.0109
   3728 H           1.7445   -4.4489    0.4871 H     1    ESP         0.0105
   3729 H           2.2037   -4.4941    0.4871 H     1    ESP         0.0104
   3730 H           2.6630   -4.4489    0.4871 H     1    ESP         0.0105
   3731 H           3.1045   -4.3149    0.4871 H     1    ESP         0.0106
   3732 H           3.5115   -4.0974    0.4871 H     1    ESP         0.0107
   3733 H           3.8682   -3.8047    0.4871 H     1    ESP         0.0108
   3734 H           4.1609   -3.4480    0.4871 H     1    ESP         0.0109
   3735 H           4.3784   -3.0410    0.4871 H     1    ESP         0.0112
   3736 H           4.5124   -2.5995    0.4871 H     1    ESP         0.0116
   3737 H           4.6037   -2.1402    0.0189 H     1    ESP         0.0129
   3738 H           1.0037   -4.2187    0.0189 H     1    ESP         0.0120
   3739 H           1.4188   -4.4082    0.0189 H     1    ESP         0.0111
   3740 H           1.8622   -4.5158    0.0189 H     1    ESP         0.0107
   3741 H           2.3179   -4.5375    0.0189 H     1    ESP         0.0107
   3742 H           2.7696   -4.4726    0.0189 H     1    ESP         0.0107
   3743 H           3.2007   -4.3234    0.0189 H     1    ESP         0.0108
   3744 H           3.5959   -4.0952    0.0189 H     1    ESP         0.0109
   3745 H           3.9407   -3.7964    0.0189 H     1    ESP         0.0110
   3746 H           4.2227   -3.4378    0.0189 H     1    ESP         0.0111
   3747 H           4.4318   -3.0322    0.0189 H     1    ESP         0.0114
   3748 H           4.5604   -2.5944    0.0189 H     1    ESP         0.0119
   3749 H           4.5576   -2.1402   -0.4494 H     1    ESP         0.0124
   3750 H           1.3029   -4.3149   -0.4494 H     1    ESP         0.0110
   3751 H           1.7445   -4.4489   -0.4494 H     1    ESP         0.0105
   3752 H           2.2037   -4.4941   -0.4494 H     1    ESP         0.0104
   3753 H           2.6630   -4.4489   -0.4494 H     1    ESP         0.0105
   3754 H           3.1045   -4.3149   -0.4494 H     1    ESP         0.0106
   3755 H           3.5115   -4.0974   -0.4494 H     1    ESP         0.0107
   3756 H           3.8682   -3.8047   -0.4494 H     1    ESP         0.0108
   3757 H           4.1609   -3.4480   -0.4494 H     1    ESP         0.0109
   3758 H           4.3784   -3.0410   -0.4494 H     1    ESP         0.0111
   3759 H           4.5124   -2.5995   -0.4494 H     1    ESP         0.0115
   3760 H           4.4211   -2.1402   -0.8996 H     1    ESP         0.0112
   3761 H           1.0951   -4.0605   -0.8996 H     1    ESP         0.0104
   3762 H           1.5186   -4.2490   -0.8996 H     1    ESP         0.0099
   3763 H           1.9720   -4.3454   -0.8996 H     1    ESP         0.0098
   3764 H           2.4355   -4.3454   -0.8996 H     1    ESP         0.0099
   3765 H           2.8889   -4.2490   -0.8996 H     1    ESP         0.0100
   3766 H           3.3124   -4.0605   -0.8996 H     1    ESP         0.0101
   3767 H           3.6874   -3.7880   -0.8996 H     1    ESP         0.0102
   3768 H           3.9976   -3.4435   -0.8996 H     1    ESP         0.0103
   3769 H           4.2294   -3.0421   -0.8996 H     1    ESP         0.0104
   3770 H           4.3726   -2.6012   -0.8996 H     1    ESP         0.0106
   3771 H           4.1993   -2.1402   -1.3145 H     1    ESP         0.0093
   3772 H           1.2060   -3.8684   -1.3145 H     1    ESP         0.0085
   3773 H           1.6314   -4.0519   -1.3145 H     1    ESP         0.0086
   3774 H           2.0877   -4.1324   -1.3145 H     1    ESP         0.0088
   3775 H           2.5503   -4.1055   -1.3145 H     1    ESP         0.0090
   3776 H           2.9941   -3.9726   -1.3145 H     1    ESP         0.0092
   3777 H           3.3954   -3.7409   -1.3145 H     1    ESP         0.0093
   3778 H           3.7324   -3.4229   -1.3145 H     1    ESP         0.0093
   3779 H           3.9870   -3.0358   -1.3145 H     1    ESP         0.0093
   3780 H           4.1455   -2.6004   -1.3145 H     1    ESP         0.0093
   3781 H           1.6354   -3.7393   -1.6782 H     1    ESP         0.0068
   3782 H           2.0879   -3.8333   -1.6782 H     1    ESP         0.0073
   3783 H           2.5490   -3.8018   -1.6782 H     1    ESP         0.0077
   3784 H           2.9845   -3.6470   -1.6782 H     1    ESP         0.0079
   3785 H           3.3621   -3.3805   -1.6782 H     1    ESP         0.0079
   3786 H           3.6537   -3.0220   -1.6782 H     1    ESP         0.0078
   3787 H           3.8379   -2.5981   -1.6782 H     1    ESP         0.0076
   3788 H           1.9722   -3.4534   -1.9767 H     1    ESP         0.0052
   3789 H           2.4353   -3.4534   -1.9767 H     1    ESP         0.0059
   3790 H           2.8704   -3.2950   -1.9767 H     1    ESP         0.0062
   3791 H           3.2252   -2.9973   -1.9767 H     1    ESP         0.0061
   3792 H           3.4567   -2.5963   -1.9767 H     1    ESP         0.0057
   3793 H           4.7747    0.0182    2.0265 H     1    ESP         0.0065
   3794 H           4.6943    0.4742    2.0265 H     1    ESP         0.0064
   3795 H           4.4628    0.8753    2.0265 H     1    ESP         0.0058
   3796 H           4.4628   -0.8389    2.0265 H     1    ESP         0.0058
   3797 H           4.6943   -0.4378    2.0265 H     1    ESP         0.0064
   3798 H           5.1384    0.0182    1.7280 H     1    ESP         0.0082
   3799 H           5.0755    0.4761    1.7280 H     1    ESP         0.0082
   3800 H           4.8913    0.9000    1.7280 H     1    ESP         0.0080
   3801 H           4.5997    1.2585    1.7280 H     1    ESP         0.0076
   3802 H           4.5997   -1.2221    1.7280 H     1    ESP         0.0076
   3803 H           4.8913   -0.8636    1.7280 H     1    ESP         0.0080
   3804 H           5.0755   -0.4397    1.7280 H     1    ESP         0.0082
   3805 H           5.4369    0.0182    1.3643 H     1    ESP         0.0095
   3806 H           5.3831    0.4784    1.3643 H     1    ESP         0.0095
   3807 H           5.2246    0.9138    1.3643 H     1    ESP         0.0094
   3808 H           4.9700    1.3009    1.3643 H     1    ESP         0.0094
   3809 H           4.6330    1.6189    1.3643 H     1    ESP         0.0094
   3810 H           4.6330   -1.5825    1.3643 H     1    ESP         0.0094
   3811 H           4.9700   -1.2645    1.3643 H     1    ESP         0.0094
   3812 H           5.2246   -0.8774    1.3643 H     1    ESP         0.0094
   3813 H           5.3831   -0.4420    1.3643 H     1    ESP         0.0095
   3814 H           5.6587    0.0182    0.9494 H     1    ESP         0.0104
   3815 H           5.6102    0.4792    0.9494 H     1    ESP         0.0104
   3816 H           5.4670    0.9201    0.9494 H     1    ESP         0.0104
   3817 H           5.2352    1.3215    0.9494 H     1    ESP         0.0105
   3818 H           4.9250    1.6660    0.9494 H     1    ESP         0.0107
   3819 H           4.5500    1.9384    0.9494 H     1    ESP         0.0112
   3820 H           4.5500   -1.9020    0.9494 H     1    ESP         0.0113
   3821 H           4.9250   -1.6296    0.9494 H     1    ESP         0.0107
   3822 H           5.2352   -1.2851    0.9494 H     1    ESP         0.0105
   3823 H           5.4670   -0.8837    0.9494 H     1    ESP         0.0104
   3824 H           5.6102   -0.4428    0.9494 H     1    ESP         0.0104
   3825 H           5.7952    0.0182    0.4992 H     1    ESP         0.0109
   3826 H           5.7500    0.4774    0.4992 H     1    ESP         0.0109
   3827 H           5.6161    0.9190    0.4992 H     1    ESP         0.0110
   3828 H           5.3985    1.3259    0.4992 H     1    ESP         0.0111
   3829 H           5.1058    1.6826    0.4992 H     1    ESP         0.0114
   3830 H           4.7491    1.9754    0.4992 H     1    ESP         0.0121
   3831 H           4.7491   -1.9390    0.4992 H     1    ESP         0.0121
   3832 H           5.1058   -1.6462    0.4992 H     1    ESP         0.0114
   3833 H           5.3985   -1.2895    0.4992 H     1    ESP         0.0111
   3834 H           5.6161   -0.8826    0.4992 H     1    ESP         0.0110
   3835 H           5.7500   -0.4410    0.4992 H     1    ESP         0.0109
   3836 H           5.8413    0.0182    0.0310 H     1    ESP         0.0111
   3837 H           5.7980    0.4724    0.0310 H     1    ESP         0.0111
   3838 H           5.6694    0.9102    0.0310 H     1    ESP         0.0111
   3839 H           5.4604    1.3157    0.0310 H     1    ESP         0.0113
   3840 H           5.1783    1.6744    0.0310 H     1    ESP         0.0116
   3841 H           4.8335    1.9732    0.0310 H     1    ESP         0.0123
   3842 H           4.8335   -1.9368    0.0310 H     1    ESP         0.0123
   3843 H           5.1783   -1.6380    0.0310 H     1    ESP         0.0116
   3844 H           5.4604   -1.2793    0.0310 H     1    ESP         0.0113
   3845 H           5.6694   -0.8738    0.0310 H     1    ESP         0.0111
   3846 H           5.7980   -0.4360    0.0310 H     1    ESP         0.0111
   3847 H           5.7952    0.0182   -0.4372 H     1    ESP         0.0109
   3848 H           5.7500    0.4774   -0.4372 H     1    ESP         0.0109
   3849 H           5.6161    0.9190   -0.4372 H     1    ESP         0.0109
   3850 H           5.3985    1.3259   -0.4372 H     1    ESP         0.0110
   3851 H           5.1058    1.6826   -0.4372 H     1    ESP         0.0113
   3852 H           4.7491    1.9754   -0.4372 H     1    ESP         0.0120
   3853 H           4.7491   -1.9390   -0.4372 H     1    ESP         0.0121
   3854 H           5.1058   -1.6462   -0.4372 H     1    ESP         0.0114
   3855 H           5.3985   -1.2895   -0.4372 H     1    ESP         0.0110
   3856 H           5.6161   -0.8826   -0.4372 H     1    ESP         0.0109
   3857 H           5.7500   -0.4410   -0.4372 H     1    ESP         0.0109
   3858 H           5.6587    0.0182   -0.8875 H     1    ESP         0.0103
   3859 H           5.6102    0.4792   -0.8875 H     1    ESP         0.0103
   3860 H           5.4670    0.9201   -0.8875 H     1    ESP         0.0103
   3861 H           5.2352    1.3215   -0.8875 H     1    ESP         0.0104
   3862 H           4.9250    1.6660   -0.8875 H     1    ESP         0.0106
   3863 H           4.5500    1.9384   -0.8875 H     1    ESP         0.0112
   3864 H           4.5500   -1.9020   -0.8875 H     1    ESP         0.0112
   3865 H           4.9250   -1.6296   -0.8875 H     1    ESP         0.0106
   3866 H           5.2352   -1.2851   -0.8875 H     1    ESP         0.0104
   3867 H           5.4670   -0.8837   -0.8875 H     1    ESP         0.0103
   3868 H           5.6102   -0.4428   -0.8875 H     1    ESP         0.0103
   3869 H           5.4369    0.0182   -1.3024 H     1    ESP         0.0094
   3870 H           5.3831    0.4784   -1.3024 H     1    ESP         0.0094
   3871 H           5.2246    0.9138   -1.3024 H     1    ESP         0.0093
   3872 H           4.9700    1.3009   -1.3024 H     1    ESP         0.0093
   3873 H           4.6330    1.6189   -1.3024 H     1    ESP         0.0093
   3874 H           4.6330   -1.5825   -1.3024 H     1    ESP         0.0093
   3875 H           4.9700   -1.2645   -1.3024 H     1    ESP         0.0093
   3876 H           5.2246   -0.8774   -1.3024 H     1    ESP         0.0093
   3877 H           5.3831   -0.4420   -1.3024 H     1    ESP         0.0094
   3878 H           5.1384    0.0182   -1.6661 H     1    ESP         0.0081
   3879 H           5.0755    0.4761   -1.6661 H     1    ESP         0.0080
   3880 H           4.8913    0.9000   -1.6661 H     1    ESP         0.0078
   3881 H           4.5997    1.2585   -1.6661 H     1    ESP         0.0075
   3882 H           4.5997   -1.2221   -1.6661 H     1    ESP         0.0075
   3883 H           4.8913   -0.8636   -1.6661 H     1    ESP         0.0078
   3884 H           5.0755   -0.4397   -1.6661 H     1    ESP         0.0080
   3885 H           4.7747    0.0182   -1.9646 H     1    ESP         0.0064
   3886 H           4.6943    0.4742   -1.9646 H     1    ESP         0.0062
   3887 H           4.4628    0.8753   -1.9646 H     1    ESP         0.0057
   3888 H           4.4628   -0.8389   -1.9646 H     1    ESP         0.0056
   3889 H           4.6943   -0.4378   -1.9646 H     1    ESP         0.0062
   3890 H           3.4339    2.6195    2.0163 H     1    ESP         0.0058
   3891 H           3.2024    3.0205    2.0163 H     1    ESP         0.0062
   3892 H           2.8477    3.3181    2.0163 H     1    ESP         0.0063
   3893 H           2.4125    3.4765    2.0163 H     1    ESP         0.0060
   3894 H           1.9494    3.4765    2.0163 H     1    ESP         0.0053
   3895 H           3.8151    2.6213    1.7178 H     1    ESP         0.0077
   3896 H           3.6310    3.0452    1.7178 H     1    ESP         0.0079
   3897 H           3.3393    3.4037    1.7178 H     1    ESP         0.0080
   3898 H           2.9617    3.6702    1.7178 H     1    ESP         0.0080
   3899 H           2.5263    3.8250    1.7178 H     1    ESP         0.0077
   3900 H           2.0652    3.8565    1.7178 H     1    ESP         0.0073
   3901 H           1.6127    3.7625    1.7178 H     1    ESP         0.0068
   3902 H           4.1765    2.1634    1.3541 H     1    ESP         0.0095
   3903 H           4.1227    2.6236    1.3541 H     1    ESP         0.0094
   3904 H           3.9642    3.0590    1.3541 H     1    ESP         0.0094
   3905 H           3.7096    3.4461    1.3541 H     1    ESP         0.0094
   3906 H           3.3726    3.7641    1.3541 H     1    ESP         0.0093
   3907 H           2.9714    3.9957    1.3541 H     1    ESP         0.0092
   3908 H           2.5275    4.1286    1.3541 H     1    ESP         0.0090
   3909 H           2.0650    4.1556    1.3541 H     1    ESP         0.0088
   3910 H           1.6087    4.0751    1.3541 H     1    ESP         0.0086
   3911 H           1.1832    3.8916    1.3541 H     1    ESP         0.0084
   3912 H           4.3983    2.1634    0.9392 H     1    ESP         0.0113
   3913 H           4.3498    2.6244    0.9392 H     1    ESP         0.0108
   3914 H           4.2066    3.0653    0.9392 H     1    ESP         0.0105
   3915 H           3.9748    3.4667    0.9392 H     1    ESP         0.0103
   3916 H           3.6647    3.8112    0.9392 H     1    ESP         0.0103
   3917 H           3.2896    4.0837    0.9392 H     1    ESP         0.0102
   3918 H           2.8662    4.2722    0.9392 H     1    ESP         0.0100
   3919 H           2.4128    4.3686    0.9392 H     1    ESP         0.0099
   3920 H           1.9492    4.3686    0.9392 H     1    ESP         0.0098
   3921 H           1.4958    4.2722    0.9392 H     1    ESP         0.0099
   3922 H           1.0723    4.0837    0.9392 H     1    ESP         0.0102
   3923 H           4.5349    2.1634    0.4890 H     1    ESP         0.0126
   3924 H           4.4896    2.6226    0.4890 H     1    ESP         0.0116
   3925 H           4.3557    3.0642    0.4890 H     1    ESP         0.0112
   3926 H           4.1382    3.4712    0.4890 H     1    ESP         0.0110
   3927 H           3.8454    3.8279    0.4890 H     1    ESP         0.0108
   3928 H           3.4887    4.1206    0.4890 H     1    ESP         0.0107
   3929 H           3.0818    4.3381    0.4890 H     1    ESP         0.0106
   3930 H           2.6402    4.4721    0.4890 H     1    ESP         0.0105
   3931 H           2.1810    4.5173    0.4890 H     1    ESP         0.0104
   3932 H           1.7218    4.4721    0.4890 H     1    ESP         0.0105
   3933 H           1.2802    4.3381    0.4890 H     1    ESP         0.0109
   3934 H           4.5810    2.1634    0.0208 H     1    ESP         0.0130
   3935 H           4.5376    2.6176    0.0208 H     1    ESP         0.0119
   3936 H           4.4091    3.0554    0.0208 H     1    ESP         0.0114
   3937 H           4.2000    3.4610    0.0208 H     1    ESP         0.0112
   3938 H           3.9179    3.8196    0.0208 H     1    ESP         0.0110
   3939 H           3.5731    4.1184    0.0208 H     1    ESP         0.0109
   3940 H           3.1780    4.3465    0.0208 H     1    ESP         0.0108
   3941 H           2.7468    4.4958    0.0208 H     1    ESP         0.0107
   3942 H           2.2952    4.5607    0.0208 H     1    ESP         0.0107
   3943 H           1.8394    4.5390    0.0208 H     1    ESP         0.0107
   3944 H           1.3960    4.4314    0.0208 H     1    ESP         0.0110
   3945 H           0.9810    4.2419    0.0208 H     1    ESP         0.0119
   3946 H           4.5349    2.1634   -0.4475 H     1    ESP         0.0125
   3947 H           4.4896    2.6226   -0.4475 H     1    ESP         0.0116
   3948 H           4.3557    3.0642   -0.4475 H     1    ESP         0.0111
   3949 H           4.1382    3.4712   -0.4475 H     1    ESP         0.0109
   3950 H           3.8454    3.8279   -0.4475 H     1    ESP         0.0108
   3951 H           3.4887    4.1206   -0.4475 H     1    ESP         0.0107
   3952 H           3.0818    4.3381   -0.4475 H     1    ESP         0.0106
   3953 H           2.6402    4.4721   -0.4475 H     1    ESP         0.0105
   3954 H           2.1810    4.5173   -0.4475 H     1    ESP         0.0104
   3955 H           1.7218    4.4721   -0.4475 H     1    ESP         0.0105
   3956 H           1.2802    4.3381   -0.4475 H     1    ESP         0.0109
   3957 H           4.3983    2.1634   -0.8977 H     1    ESP         0.0112
   3958 H           4.3498    2.6244   -0.8977 H     1    ESP         0.0107
   3959 H           4.2066    3.0653   -0.8977 H     1    ESP         0.0104
   3960 H           3.9748    3.4667   -0.8977 H     1    ESP         0.0103
   3961 H           3.6647    3.8112   -0.8977 H     1    ESP         0.0102
   3962 H           3.2896    4.0837   -0.8977 H     1    ESP         0.0101
   3963 H           2.8662    4.2722   -0.8977 H     1    ESP         0.0100
   3964 H           2.4128    4.3686   -0.8977 H     1    ESP         0.0099
   3965 H           1.9492    4.3686   -0.8977 H     1    ESP         0.0098
   3966 H           1.4958    4.2722   -0.8977 H     1    ESP         0.0099
   3967 H           1.0723    4.0837   -0.8977 H     1    ESP         0.0103
   3968 H           4.1765    2.1634   -1.3126 H     1    ESP         0.0093
   3969 H           4.1227    2.6236   -1.3126 H     1    ESP         0.0093
   3970 H           3.9642    3.0590   -1.3126 H     1    ESP         0.0093
   3971 H           3.7096    3.4461   -1.3126 H     1    ESP         0.0093
   3972 H           3.3726    3.7641   -1.3126 H     1    ESP         0.0093
   3973 H           2.9714    3.9957   -1.3126 H     1    ESP         0.0092
   3974 H           2.5275    4.1286   -1.3126 H     1    ESP         0.0090
   3975 H           2.0650    4.1556   -1.3126 H     1    ESP         0.0088
   3976 H           1.6087    4.0751   -1.3126 H     1    ESP         0.0086
   3977 H           1.1832    3.8916   -1.3126 H     1    ESP         0.0085
   3978 H           3.8151    2.6213   -1.6763 H     1    ESP         0.0075
   3979 H           3.6310    3.0452   -1.6763 H     1    ESP         0.0078
   3980 H           3.3393    3.4037   -1.6763 H     1    ESP         0.0079
   3981 H           2.9617    3.6702   -1.6763 H     1    ESP         0.0079
   3982 H           2.5263    3.8250   -1.6763 H     1    ESP         0.0077
   3983 H           2.0652    3.8565   -1.6763 H     1    ESP         0.0073
   3984 H           1.6127    3.7625   -1.6763 H     1    ESP         0.0068
   3985 H           3.4339    2.6195   -1.9748 H     1    ESP         0.0056
   3986 H           3.2024    3.0205   -1.9748 H     1    ESP         0.0061
   3987 H           2.8477    3.3181   -1.9748 H     1    ESP         0.0062
   3988 H           2.4125    3.4765   -1.9748 H     1    ESP         0.0059
   3989 H           1.9494    3.4765   -1.9748 H     1    ESP         0.0052
   3990 H          -0.0752    3.4603    1.9937 H     1    ESP         0.0032
   3991 H          -0.5383    3.4603    1.9937 H     1    ESP         0.0027
   3992 H          -0.9735    3.3019    1.9937 H     1    ESP         0.0015
   3993 H          -1.3282    3.0043    1.9937 H     1    ESP        -0.0004
   3994 H           0.0385    3.8087    1.6953 H     1    ESP         0.0055
   3995 H          -0.4226    3.8403    1.6953 H     1    ESP         0.0049
   3996 H          -0.8751    3.7463    1.6953 H     1    ESP         0.0039
   3997 H          -1.2854    3.5336    1.6953 H     1    ESP         0.0025
   3998 H          -1.6232    3.2182    1.6953 H     1    ESP         0.0004
   3999 H           0.4836    3.9795    1.3316 H     1    ESP         0.0078
   4000 H           0.0397    4.1124    1.3316 H     1    ESP         0.0072
   4001 H          -0.4228    4.1393    1.3316 H     1    ESP         0.0064
   4002 H          -0.8791    4.0589    1.3316 H     1    ESP         0.0054
   4003 H          -1.3045    3.8754    1.3316 H     1    ESP         0.0041
   4004 H          -1.6762    3.5987    1.3316 H     1    ESP         0.0024
   4005 H          -1.9740    3.2437    1.3316 H     1    ESP        -0.0001
   4006 H           0.8019    4.0674    0.9167 H     1    ESP         0.0102
   4007 H           0.3784    4.2560    0.9167 H     1    ESP         0.0091
   4008 H          -0.0750    4.3524    0.9167 H     1    ESP         0.0082
   4009 H          -0.5386    4.3524    0.9167 H     1    ESP         0.0073
   4010 H          -0.9920    4.2560    0.9167 H     1    ESP         0.0063
   4011 H          -1.4154    4.0674    0.9167 H     1    ESP         0.0050
   4012 H          -1.7904    3.7950    0.9167 H     1    ESP         0.0032
   4013 H          -2.1006    3.4505    0.9167 H     1    ESP         0.0009
   4014 H           0.5940    4.3219    0.4664 H     1    ESP         0.0105
   4015 H           0.1524    4.4558    0.4664 H     1    ESP         0.0093
   4016 H          -0.3068    4.5011    0.4664 H     1    ESP         0.0084
   4017 H          -0.7660    4.4558    0.4664 H     1    ESP         0.0075
   4018 H          -1.2076    4.3219    0.4664 H     1    ESP         0.0063
   4019 H          -1.6145    4.1044    0.4664 H     1    ESP         0.0049
   4020 H          -1.9712    3.8116    0.4664 H     1    ESP         0.0031
   4021 H          -2.2640    3.4549    0.4664 H     1    ESP         0.0006
   4022 H           0.6902    4.3303   -0.0018 H     1    ESP         0.0111
   4023 H           0.2590    4.4795   -0.0018 H     1    ESP         0.0098
   4024 H          -0.1926    4.5445   -0.0018 H     1    ESP         0.0088
   4025 H          -0.6483    4.5228   -0.0018 H     1    ESP         0.0079
   4026 H          -1.0917    4.4152   -0.0018 H     1    ESP         0.0069
   4027 H          -1.5068    4.2256   -0.0018 H     1    ESP         0.0056
   4028 H          -1.8784    3.9610   -0.0018 H     1    ESP         0.0039
   4029 H          -2.1933    3.6308   -0.0018 H     1    ESP         0.0017
   4030 H           0.5940    4.3219   -0.4700 H     1    ESP         0.0104
   4031 H           0.1524    4.4558   -0.4700 H     1    ESP         0.0093
   4032 H          -0.3068    4.5011   -0.4700 H     1    ESP         0.0084
   4033 H          -0.7660    4.4558   -0.4700 H     1    ESP         0.0074
   4034 H          -1.2076    4.3219   -0.4700 H     1    ESP         0.0063
   4035 H          -1.6145    4.1044   -0.4700 H     1    ESP         0.0049
   4036 H          -1.9712    3.8116   -0.4700 H     1    ESP         0.0031
   4037 H          -2.2640    3.4549   -0.4700 H     1    ESP         0.0006
   4038 H           0.8019    4.0674   -0.9202 H     1    ESP         0.0101
   4039 H           0.3784    4.2560   -0.9202 H     1    ESP         0.0090
   4040 H          -0.0750    4.3524   -0.9202 H     1    ESP         0.0081
   4041 H          -0.5386    4.3524   -0.9202 H     1    ESP         0.0073
   4042 H          -0.9920    4.2560   -0.9202 H     1    ESP         0.0062
   4043 H          -1.4154    4.0674   -0.9202 H     1    ESP         0.0049
   4044 H          -1.7904    3.7950   -0.9202 H     1    ESP         0.0032
   4045 H          -2.1006    3.4505   -0.9202 H     1    ESP         0.0009
   4046 H           0.4836    3.9795   -1.3352 H     1    ESP         0.0077
   4047 H           0.0397    4.1124   -1.3352 H     1    ESP         0.0071
   4048 H          -0.4228    4.1393   -1.3352 H     1    ESP         0.0064
   4049 H          -0.8791    4.0589   -1.3352 H     1    ESP         0.0054
   4050 H          -1.3045    3.8754   -1.3352 H     1    ESP         0.0041
   4051 H          -1.6762    3.5987   -1.3352 H     1    ESP         0.0023
   4052 H          -1.9740    3.2437   -1.3352 H     1    ESP        -0.0001
   4053 H           0.0385    3.8087   -1.6988 H     1    ESP         0.0054
   4054 H          -0.4226    3.8403   -1.6988 H     1    ESP         0.0048
   4055 H          -0.8751    3.7463   -1.6988 H     1    ESP         0.0039
   4056 H          -1.2854    3.5336   -1.6988 H     1    ESP         0.0024
   4057 H          -1.6232    3.2182   -1.6988 H     1    ESP         0.0004
   4058 H          -0.0752    3.4603   -1.9973 H     1    ESP         0.0032
   4059 H          -0.5383    3.4603   -1.9973 H     1    ESP         0.0027
   4060 H          -0.9735    3.3019   -1.9973 H     1    ESP         0.0015
   4061 H          -1.3282    3.0043   -1.9973 H     1    ESP        -0.0004
