@<TRIPOS>MOLECULE
*****
 13 12 0 0 0
SMALL
GASTEIGER

@<TRIPOS>ATOM
      1 C           0.3234   -1.2135   -0.0152 C.ar  1    UNL        -0.1814
      2 C           1.7189   -1.2051   -0.0004 C.ar  1    UNL        -0.1379
      3 C           2.4091    0.0076    0.0088 C.ar  1    UNL        -0.1263
      4 C           1.7059    1.2129    0.0001 C.ar  1    UNL        -0.1379
      5 C           0.3106    1.2069   -0.0138 C.ar  1    UNL        -0.1814
      6 C          -0.3757   -0.0073   -0.0183 C.ar  1    UNL         0.2642
      7 CL         -2.0964   -0.0162   -0.0244 Cl    1    UNL        -0.2829
      8 H          -0.2111   -2.1595   -0.0232 H     1    UNL         0.1570
      9 H           2.2679   -2.1436    0.0046 H     1    UNL         0.1400
     10 H           3.4964    0.0133    0.0236 H     1    UNL         0.1322
     11 H           2.2451    2.1570    0.0042 H     1    UNL         0.1400
     12 H          -0.2340    2.1470   -0.0191 H     1    UNL         0.1570
     13 DLP1       -3.7364   -0.0247   -0.0302 Du    1    UNL         0.0576
@<TRIPOS>BOND
     1     1     2   ar
     2     2     3   ar
     3     3     4   ar
     4     4     5   ar
     5     5     6   ar
     6     1     6   ar
     7     6     7    1
     8     1     8    1
     9     2     9    1
    10     3    10    1
    11     4    11    1
    12     5    12    1
