@<TRIPOS>MOLECULE
ffESPLP.mol2
 4061 0 1
SMALL
USER_CHARGES
@<TRIPOS>ATOM
     13 H           0.2653   -1.2149    2.1021 H     1    ESP        -0.0071
     13 H           0.7326   -1.2149    2.0494 H     1    ESP        -0.0077
     13 H           0.4990   -0.8103    2.0494 H     1    ESP        -0.0096
     13 H           0.0317   -0.8103    2.0494 H     1    ESP        -0.0090
     13 H          -0.2019   -1.2149    2.0494 H     1    ESP        -0.0066
     13 H           0.0317   -1.6196    2.0494 H     1    ESP        -0.0046
     13 H           0.4990   -1.6196    2.0494 H     1    ESP        -0.0053
     13 H           0.7209   -0.4259    1.8941 H     1    ESP        -0.0126
     13 H          -0.6458   -1.2149    1.8941 H     1    ESP        -0.0062
     13 H          -0.5237   -1.6705    1.8941 H     1    ESP        -0.0035
     13 H          -0.1902   -2.0040    1.8941 H     1    ESP        -0.0019
     13 H           0.2653   -2.1261    1.8941 H     1    ESP        -0.0021
     13 H           0.7209   -2.0040    1.8941 H     1    ESP        -0.0034
     13 H           0.9200   -0.0810    1.6439 H     1    ESP        -0.0167
     13 H          -0.9650   -1.6628    1.6439 H     1    ESP        -0.0027
     13 H          -0.7377   -2.0566    1.6439 H     1    ESP        -0.0000
     13 H           0.0380   -2.5044    1.6439 H     1    ESP         0.0014
     13 H           0.4927   -2.5044    1.6439 H     1    ESP         0.0002
     13 H           0.9200   -2.3489    1.6439 H     1    ESP        -0.0012
     13 H           0.9474   -2.7084    1.3114 H     1    ESP         0.0020
     13 H           0.9363   -2.9840    0.9132 H     1    ESP         0.0051
     13 H           0.9363   -2.9840   -0.9091 H     1    ESP         0.0051
     13 H           0.9474   -2.7084   -1.3073 H     1    ESP         0.0020
     13 H           0.9200   -0.0810   -1.6398 H     1    ESP        -0.0165
     13 H          -0.9650   -1.6628   -1.6398 H     1    ESP        -0.0027
     13 H          -0.7377   -2.0566   -1.6398 H     1    ESP         0.0001
     13 H           0.0380   -2.5044   -1.6398 H     1    ESP         0.0015
     13 H           0.4927   -2.5044   -1.6398 H     1    ESP         0.0003
     13 H           0.9200   -2.3489   -1.6398 H     1    ESP        -0.0012
     13 H           0.7209   -0.4259   -1.8900 H     1    ESP        -0.0125
     13 H          -0.6458   -1.2149   -1.8900 H     1    ESP        -0.0062
     13 H          -0.5237   -1.6705   -1.8900 H     1    ESP        -0.0034
     13 H          -0.1902   -2.0040   -1.8900 H     1    ESP        -0.0018
     13 H           0.2653   -2.1261   -1.8900 H     1    ESP        -0.0020
     13 H           0.7209   -2.0040   -1.8900 H     1    ESP        -0.0034
     13 H           0.7326   -1.2149   -2.0453 H     1    ESP        -0.0077
     13 H           0.4990   -0.8103   -2.0453 H     1    ESP        -0.0095
     13 H           0.0317   -0.8103   -2.0453 H     1    ESP        -0.0090
     13 H          -0.2019   -1.2149   -2.0453 H     1    ESP        -0.0065
     13 H           0.0317   -1.6196   -2.0453 H     1    ESP        -0.0046
     13 H           0.4990   -1.6196   -2.0453 H     1    ESP        -0.0052
     13 H           0.2653   -1.2149   -2.0979 H     1    ESP        -0.0070
     13 H           1.6611   -1.1989    2.1146 H     1    ESP        -0.0058
     13 H           2.1284   -1.1989    2.0619 H     1    ESP        -0.0044
     13 H           1.8947   -0.7943    2.0619 H     1    ESP        -0.0070
     13 H           1.4274   -0.7943    2.0619 H     1    ESP        -0.0086
     13 H           1.1938   -1.1989    2.0619 H     1    ESP        -0.0073
     13 H           1.4274   -1.6036    2.0619 H     1    ESP        -0.0046
     13 H           1.8947   -1.6036    2.0619 H     1    ESP        -0.0033
     13 H           2.5722   -1.1989    1.9066 H     1    ESP        -0.0028
     13 H           1.2055   -0.4099    1.9066 H     1    ESP        -0.0119
     13 H           1.2055   -1.9880    1.9066 H     1    ESP        -0.0032
     13 H           1.6611   -2.1101    1.9066 H     1    ESP        -0.0014
     13 H           2.1167   -1.9880    1.9066 H     1    ESP        -0.0006
     13 H           2.4502   -1.6545    1.9066 H     1    ESP        -0.0012
     13 H           2.9704   -1.1989    1.6564 H     1    ESP        -0.0008
     13 H           1.0064   -0.0650    1.6564 H     1    ESP        -0.0164
     13 H           1.0064   -2.3329    1.6564 H     1    ESP        -0.0012
     13 H           1.4337   -2.4884    1.6564 H     1    ESP         0.0005
     13 H           1.8884   -2.4884    1.6564 H     1    ESP         0.0020
     13 H           2.6641   -2.0406    1.6564 H     1    ESP         0.0021
     13 H           2.8915   -1.6468    1.6564 H     1    ESP         0.0007
     13 H           0.9790   -2.6924    1.3239 H     1    ESP         0.0019
     13 H           3.2364   -1.6615    1.3239 H     1    ESP         0.0031
     13 H           0.9902   -2.9680    0.9257 H     1    ESP         0.0051
     13 H           3.2364   -1.6615   -1.2947 H     1    ESP         0.0029
     13 H           2.9704   -1.1989   -1.6273 H     1    ESP        -0.0010
     13 H           1.0064   -0.0650   -1.6273 H     1    ESP        -0.0166
     13 H           1.0064   -2.3329   -1.6273 H     1    ESP        -0.0012
     13 H           1.4337   -2.4884   -1.6273 H     1    ESP         0.0005
     13 H           1.8884   -2.4884   -1.6273 H     1    ESP         0.0019
     13 H           2.6641   -2.0406   -1.6273 H     1    ESP         0.0020
     13 H           2.8915   -1.6468   -1.6273 H     1    ESP         0.0006
     13 H           2.5722   -1.1989   -1.8774 H     1    ESP        -0.0030
     13 H           1.2055   -0.4099   -1.8774 H     1    ESP        -0.0120
     13 H           1.2055   -1.9880   -1.8774 H     1    ESP        -0.0032
     13 H           1.6611   -2.1101   -1.8774 H     1    ESP        -0.0015
     13 H           2.1167   -1.9880   -1.8774 H     1    ESP        -0.0007
     13 H           2.4502   -1.6545   -1.8774 H     1    ESP        -0.0013
     13 H           2.1284   -1.1989   -2.0328 H     1    ESP        -0.0045
     13 H           1.8947   -0.7943   -2.0328 H     1    ESP        -0.0071
     13 H           1.4274   -0.7943   -2.0328 H     1    ESP        -0.0087
     13 H           1.1938   -1.1989   -2.0328 H     1    ESP        -0.0074
     13 H           1.4274   -1.6036   -2.0328 H     1    ESP        -0.0047
     13 H           1.8947   -1.6036   -2.0328 H     1    ESP        -0.0034
     13 H           1.6611   -1.1989   -2.0854 H     1    ESP        -0.0059
     13 H           2.3553    0.0124    2.1214 H     1    ESP        -0.0056
     13 H           2.8226    0.0124    2.0687 H     1    ESP        -0.0032
     13 H           2.5889    0.4171    2.0687 H     1    ESP        -0.0043
     13 H           2.1217    0.4171    2.0687 H     1    ESP        -0.0069
     13 H           1.8880    0.0124    2.0687 H     1    ESP        -0.0083
     13 H           2.1217   -0.3922    2.0687 H     1    ESP        -0.0069
     13 H           2.5889   -0.3922    2.0687 H     1    ESP        -0.0043
     13 H           3.2665    0.0124    1.9134 H     1    ESP        -0.0005
     13 H           3.1444    0.4680    1.9134 H     1    ESP        -0.0011
     13 H           2.8109    0.8015    1.9134 H     1    ESP        -0.0028
     13 H           1.4441    0.0124    1.9134 H     1    ESP        -0.0116
     13 H           2.8109   -0.7766    1.9134 H     1    ESP        -0.0028
     13 H           3.1444   -0.4431    1.9134 H     1    ESP        -0.0012
     13 H           3.5857    0.4603    1.6632 H     1    ESP         0.0022
     13 H           3.3583    0.8541    1.6632 H     1    ESP         0.0008
     13 H           3.0100    1.1464    1.6632 H     1    ESP        -0.0008
     13 H           1.0460    0.0124    1.6632 H     1    ESP        -0.0162
     13 H           3.0100   -1.1215    1.6632 H     1    ESP        -0.0008
     13 H           3.3583   -0.8292    1.6632 H     1    ESP         0.0008
     13 H           3.5857   -0.4354    1.6632 H     1    ESP         0.0022
     13 H           3.4305    1.2533    1.3307 H     1    ESP         0.0026
     13 H           3.4305   -1.2284    1.3307 H     1    ESP         0.0025
     13 H           3.4305    1.2533   -1.2879 H     1    ESP         0.0024
     13 H           3.4305   -1.2284   -1.2879 H     1    ESP         0.0024
     13 H           3.5857    0.4603   -1.6205 H     1    ESP         0.0019
     13 H           3.3583    0.8541   -1.6205 H     1    ESP         0.0006
     13 H           3.0100    1.1464   -1.6205 H     1    ESP        -0.0010
     13 H           1.0460    0.0124   -1.6205 H     1    ESP        -0.0167
     13 H           3.0100   -1.1215   -1.6205 H     1    ESP        -0.0010
     13 H           3.3583   -0.8292   -1.6205 H     1    ESP         0.0005
     13 H           3.5857   -0.4354   -1.6205 H     1    ESP         0.0019
     13 H           3.2665    0.0124   -1.8706 H     1    ESP        -0.0007
     13 H           3.1444    0.4680   -1.8706 H     1    ESP        -0.0013
     13 H           2.8109    0.8015   -1.8706 H     1    ESP        -0.0030
     13 H           1.4441    0.0124   -1.8706 H     1    ESP        -0.0119
     13 H           2.8109   -0.7766   -1.8706 H     1    ESP        -0.0030
     13 H           3.1444   -0.4431   -1.8706 H     1    ESP        -0.0014
     13 H           2.8226    0.0124   -2.0260 H     1    ESP        -0.0034
     13 H           2.5889    0.4171   -2.0260 H     1    ESP        -0.0045
     13 H           2.1217    0.4171   -2.0260 H     1    ESP        -0.0071
     13 H           1.8880    0.0124   -2.0260 H     1    ESP        -0.0085
     13 H           2.1217   -0.3922   -2.0260 H     1    ESP        -0.0071
     13 H           2.5889   -0.3922   -2.0260 H     1    ESP        -0.0045
     13 H           2.3553    0.0124   -2.0786 H     1    ESP        -0.0058
     13 H           1.6483    1.2164    2.1157 H     1    ESP        -0.0058
     13 H           2.1156    1.2164    2.0630 H     1    ESP        -0.0044
     13 H           1.8820    1.6211    2.0630 H     1    ESP        -0.0033
     13 H           1.4147    1.6211    2.0630 H     1    ESP        -0.0046
     13 H           1.1810    1.2164    2.0630 H     1    ESP        -0.0073
     13 H           1.4147    0.8118    2.0630 H     1    ESP        -0.0085
     13 H           1.8820    0.8118    2.0630 H     1    ESP        -0.0070
     13 H           2.5595    1.2164    1.9077 H     1    ESP        -0.0029
     13 H           2.4374    1.6720    1.9077 H     1    ESP        -0.0012
     13 H           2.1039    2.0055    1.9077 H     1    ESP        -0.0006
     13 H           1.6483    2.1276    1.9077 H     1    ESP        -0.0013
     13 H           1.1927    2.0055    1.9077 H     1    ESP        -0.0031
     13 H           1.1927    0.4274    1.9077 H     1    ESP        -0.0118
     13 H           2.9576    1.2164    1.6575 H     1    ESP        -0.0009
     13 H           2.8787    1.6643    1.6575 H     1    ESP         0.0007
     13 H           2.6513    2.0581    1.6575 H     1    ESP         0.0021
     13 H           1.8757    2.5059    1.6575 H     1    ESP         0.0020
     13 H           1.4209    2.5059    1.6575 H     1    ESP         0.0006
     13 H           0.9936    2.3504    1.6575 H     1    ESP        -0.0012
     13 H           0.9936    0.0825    1.6575 H     1    ESP        -0.0164
     13 H           3.2236    1.6790    1.3250 H     1    ESP         0.0030
     13 H           0.9663    2.7099    1.3250 H     1    ESP         0.0019
     13 H           0.9774    2.9855    0.9268 H     1    ESP         0.0051
     13 H           0.9774    2.9855   -0.8955 H     1    ESP         0.0051
     13 H           3.2236    1.6790   -1.2937 H     1    ESP         0.0028
     13 H           0.9663    2.7099   -1.2937 H     1    ESP         0.0020
     13 H           2.9576    1.2164   -1.6262 H     1    ESP        -0.0010
     13 H           2.8787    1.6643   -1.6262 H     1    ESP         0.0005
     13 H           2.6513    2.0581   -1.6262 H     1    ESP         0.0019
     13 H           1.8757    2.5059   -1.6262 H     1    ESP         0.0019
     13 H           1.4209    2.5059   -1.6262 H     1    ESP         0.0005
     13 H           0.9936    2.3504   -1.6262 H     1    ESP        -0.0012
     13 H           0.9936    0.0825   -1.6262 H     1    ESP        -0.0166
     13 H           2.5595    1.2164   -1.8764 H     1    ESP        -0.0030
     13 H           2.4374    1.6720   -1.8764 H     1    ESP        -0.0014
     13 H           2.1039    2.0055   -1.8764 H     1    ESP        -0.0007
     13 H           1.6483    2.1276   -1.8764 H     1    ESP        -0.0014
     13 H           1.1927    2.0055   -1.8764 H     1    ESP        -0.0032
     13 H           1.1927    0.4274   -1.8764 H     1    ESP        -0.0120
     13 H           2.1156    1.2164   -2.0317 H     1    ESP        -0.0046
     13 H           1.8820    1.6211   -2.0317 H     1    ESP        -0.0034
     13 H           1.4147    1.6211   -2.0317 H     1    ESP        -0.0047
     13 H           1.1810    1.2164   -2.0317 H     1    ESP        -0.0074
     13 H           1.4147    0.8118   -2.0317 H     1    ESP        -0.0087
     13 H           1.8820    0.8118   -2.0317 H     1    ESP        -0.0071
     13 H           1.6483    1.2164   -2.0843 H     1    ESP        -0.0060
     13 H           0.2525    1.2177    2.1030 H     1    ESP        -0.0071
     13 H           0.7198    1.2177    2.0504 H     1    ESP        -0.0078
     13 H           0.4861    1.6224    2.0504 H     1    ESP        -0.0053
     13 H           0.0188    1.6224    2.0504 H     1    ESP        -0.0046
     13 H          -0.2148    1.2177    2.0504 H     1    ESP        -0.0065
     13 H           0.0188    0.8130    2.0504 H     1    ESP        -0.0090
     13 H           0.4861    0.8130    2.0504 H     1    ESP        -0.0096
     13 H           0.7081    2.0068    1.8951 H     1    ESP        -0.0034
     13 H           0.2525    2.1288    1.8951 H     1    ESP        -0.0021
     13 H          -0.2031    2.0068    1.8951 H     1    ESP        -0.0019
     13 H          -0.5366    1.6733    1.8951 H     1    ESP        -0.0034
     13 H          -0.6587    1.2177    1.8951 H     1    ESP        -0.0062
     13 H           0.7081    0.4286    1.8951 H     1    ESP        -0.0126
     13 H           0.9071    2.3516    1.6449 H     1    ESP        -0.0012
     13 H           0.4798    2.5071    1.6449 H     1    ESP         0.0002
     13 H           0.0251    2.5071    1.6449 H     1    ESP         0.0013
     13 H          -0.7505    2.0593    1.6449 H     1    ESP         0.0001
     13 H          -0.9779    1.6655    1.6449 H     1    ESP        -0.0026
     13 H           0.9071    0.0838    1.6449 H     1    ESP        -0.0167
     13 H           0.9345    2.7111    1.3124 H     1    ESP         0.0020
     13 H           0.4861    2.8428    1.3124 H     1    ESP         0.0033
     13 H           0.9234    2.9868    0.9142 H     1    ESP         0.0051
     13 H           0.9234    2.9868   -0.9081 H     1    ESP         0.0051
     13 H           0.9345    2.7111   -1.3063 H     1    ESP         0.0019
     13 H           0.9071    2.3516   -1.6388 H     1    ESP        -0.0012
     13 H           0.4798    2.5071   -1.6388 H     1    ESP         0.0003
     13 H           0.0251    2.5071   -1.6388 H     1    ESP         0.0014
     13 H          -0.7505    2.0593   -1.6388 H     1    ESP         0.0002
     13 H          -0.9779    1.6655   -1.6388 H     1    ESP        -0.0026
     13 H           0.9071    0.0838   -1.6388 H     1    ESP        -0.0166
     13 H           0.7081    2.0068   -1.8890 H     1    ESP        -0.0034
     13 H           0.2525    2.1288   -1.8890 H     1    ESP        -0.0020
     13 H          -0.2031    2.0068   -1.8890 H     1    ESP        -0.0018
     13 H          -0.5366    1.6733   -1.8890 H     1    ESP        -0.0034
     13 H          -0.6587    1.2177   -1.8890 H     1    ESP        -0.0062
     13 H           0.7081    0.4286   -1.8890 H     1    ESP        -0.0125
     13 H           0.7198    1.2177   -2.0443 H     1    ESP        -0.0077
     13 H           0.4861    1.6224   -2.0443 H     1    ESP        -0.0052
     13 H           0.0188    1.6224   -2.0443 H     1    ESP        -0.0046
     13 H          -0.2148    1.2177   -2.0443 H     1    ESP        -0.0065
     13 H           0.0188    0.8130   -2.0443 H     1    ESP        -0.0090
     13 H           0.4861    0.8130   -2.0443 H     1    ESP        -0.0095
     13 H           0.2525    1.2177   -2.0970 H     1    ESP        -0.0070
     13 H          -0.4236   -0.0022    2.0964 H     1    ESP        -0.0093
     13 H           0.0437   -0.0022    2.0437 H     1    ESP        -0.0108
     13 H          -0.1900    0.4024    2.0437 H     1    ESP        -0.0099
     13 H          -0.6573    0.4024    2.0437 H     1    ESP        -0.0087
     13 H          -0.8909   -0.0022    2.0437 H     1    ESP        -0.0084
     13 H          -0.6573   -0.4069    2.0437 H     1    ESP        -0.0087
     13 H          -0.1900   -0.4069    2.0437 H     1    ESP        -0.0099
     13 H           0.4875   -0.0022    1.8884 H     1    ESP        -0.0131
     13 H          -0.8792    0.7868    1.8884 H     1    ESP        -0.0079
     13 H          -0.8792   -0.7913    1.8884 H     1    ESP        -0.0079
     13 H           0.8857   -0.0022    1.6382 H     1    ESP        -0.0169
     13 H           0.8857   -0.0022   -1.6455 H     1    ESP        -0.0165
     13 H           0.4875   -0.0022   -1.8957 H     1    ESP        -0.0129
     13 H          -0.8792    0.7868   -1.8957 H     1    ESP        -0.0078
     13 H          -0.8792   -0.7913   -1.8957 H     1    ESP        -0.0078
     13 H           0.0437   -0.0022   -2.0510 H     1    ESP        -0.0107
     13 H          -0.1900    0.4024   -2.0510 H     1    ESP        -0.0098
     13 H          -0.6573    0.4024   -2.0510 H     1    ESP        -0.0086
     13 H          -0.8909   -0.0022   -2.0510 H     1    ESP        -0.0083
     13 H          -0.6573   -0.4069   -2.0510 H     1    ESP        -0.0086
     13 H          -0.1900   -0.4069   -2.0510 H     1    ESP        -0.0098
     13 H          -0.4236   -0.0022   -2.1036 H     1    ESP        -0.0092
     13 H          -2.1848   -0.0115    2.3599 H     1    ESP        -0.0031
     13 H          -1.7204   -0.0115    2.3142 H     1    ESP        -0.0044
     13 H          -1.9526    0.3906    2.3142 H     1    ESP        -0.0036
     13 H          -2.4169    0.3906    2.3142 H     1    ESP        -0.0026
     13 H          -2.6491   -0.0115    2.3142 H     1    ESP        -0.0021
     13 H          -2.4169   -0.4137    2.3142 H     1    ESP        -0.0026
     13 H          -1.9526   -0.4137    2.3142 H     1    ESP        -0.0036
     13 H          -1.2740   -0.0115    2.1787 H     1    ESP        -0.0062
     13 H          -1.3960    0.4438    2.1787 H     1    ESP        -0.0055
     13 H          -1.7294    0.7772    2.1787 H     1    ESP        -0.0040
     13 H          -2.1848    0.8992    2.1787 H     1    ESP        -0.0028
     13 H          -2.6402    0.7772    2.1787 H     1    ESP        -0.0020
     13 H          -2.9735    0.4438    2.1787 H     1    ESP        -0.0014
     13 H          -3.0955   -0.0115    2.1787 H     1    ESP        -0.0012
     13 H          -2.9735   -0.4669    2.1787 H     1    ESP        -0.0014
     13 H          -2.6402   -0.8003    2.1787 H     1    ESP        -0.0020
     13 H          -2.1848   -0.9223    2.1787 H     1    ESP        -0.0028
     13 H          -1.7294   -0.8003    2.1787 H     1    ESP        -0.0040
     13 H          -1.3960   -0.4669    2.1787 H     1    ESP        -0.0055
     13 H          -1.1719    0.8384    1.9588 H     1    ESP        -0.0063
     13 H          -1.5236    1.1336    1.9588 H     1    ESP        -0.0042
     13 H          -1.9552    1.2906    1.9588 H     1    ESP        -0.0028
     13 H          -2.4144    1.2906    1.9588 H     1    ESP        -0.0020
     13 H          -2.8459    1.1336    1.9588 H     1    ESP        -0.0014
     13 H          -3.1977    0.8384    1.9588 H     1    ESP        -0.0008
     13 H          -3.4273    0.4407    1.9588 H     1    ESP        -0.0003
     13 H          -3.5070   -0.0115    1.9588 H     1    ESP        -0.0000
     13 H          -3.4273   -0.4638    1.9588 H     1    ESP        -0.0002
     13 H          -3.1977   -0.8615    1.9588 H     1    ESP        -0.0008
     13 H          -2.8459   -1.1567    1.9588 H     1    ESP        -0.0014
     13 H          -2.4144   -1.3137    1.9588 H     1    ESP        -0.0020
     13 H          -1.9552   -1.3137    1.9588 H     1    ESP        -0.0028
     13 H          -1.5236   -1.1567    1.9588 H     1    ESP        -0.0041
     13 H          -1.1719   -0.8615    1.9588 H     1    ESP        -0.0062
     13 H          -1.0361    1.2184    1.6628 H     1    ESP        -0.0060
     13 H          -1.4105    1.4827    1.6628 H     1    ESP        -0.0034
     13 H          -1.8424    1.6362    1.6628 H     1    ESP        -0.0022
     13 H          -2.2996    1.6674    1.6628 H     1    ESP        -0.0016
     13 H          -2.7483    1.5742    1.6628 H     1    ESP        -0.0012
     13 H          -3.1553    1.3633    1.6628 H     1    ESP        -0.0006
     13 H          -3.4902    1.0505    1.6628 H     1    ESP         0.0001
     13 H          -3.7283    0.6589    1.6628 H     1    ESP         0.0009
     13 H          -3.8520    0.2176    1.6628 H     1    ESP         0.0015
     13 H          -3.8520   -0.2407    1.6628 H     1    ESP         0.0015
     13 H          -3.7283   -0.6820    1.6628 H     1    ESP         0.0009
     13 H          -3.4902   -1.0736    1.6628 H     1    ESP         0.0001
     13 H          -3.1553   -1.3864    1.6628 H     1    ESP        -0.0006
     13 H          -2.7483   -1.5973    1.6628 H     1    ESP        -0.0012
     13 H          -2.2996   -1.6905    1.6628 H     1    ESP        -0.0016
     13 H          -1.8424   -1.6593    1.6628 H     1    ESP        -0.0021
     13 H          -1.4105   -1.5058    1.6628 H     1    ESP        -0.0033
     13 H          -1.0361   -1.2415    1.6628 H     1    ESP        -0.0059
     13 H          -1.4010    1.8055    1.3021 H     1    ESP        -0.0008
     13 H          -1.8411    1.9373    1.3021 H     1    ESP        -0.0007
     13 H          -2.2998    1.9640    1.3021 H     1    ESP        -0.0008
     13 H          -2.7523    1.8842    1.3021 H     1    ESP        -0.0007
     13 H          -3.1742    1.7022    1.3021 H     1    ESP        -0.0003
     13 H          -3.5428    1.4279    1.3021 H     1    ESP         0.0004
     13 H          -3.8381    1.0759    1.3021 H     1    ESP         0.0015
     13 H          -4.0443    0.6653    1.3021 H     1    ESP         0.0029
     13 H          -4.1503    0.2182    1.3021 H     1    ESP         0.0040
     13 H          -4.1503   -0.2413    1.3021 H     1    ESP         0.0041
     13 H          -4.0443   -0.6884    1.3021 H     1    ESP         0.0030
     13 H          -3.8381   -1.0990    1.3021 H     1    ESP         0.0016
     13 H          -3.5428   -1.4509    1.3021 H     1    ESP         0.0005
     13 H          -3.1742   -1.7253    1.3021 H     1    ESP        -0.0003
     13 H          -2.7523   -1.9073    1.3021 H     1    ESP        -0.0007
     13 H          -2.2998   -1.9871    1.3021 H     1    ESP        -0.0008
     13 H          -1.8411   -1.9604    1.3021 H     1    ESP        -0.0007
     13 H          -1.4010   -1.8286    1.3021 H     1    ESP        -0.0007
     13 H          -1.9549    2.1752    0.8907 H     1    ESP         0.0010
     13 H          -2.4146    2.1752    0.8907 H     1    ESP        -0.0000
     13 H          -2.8642    2.0797    0.8907 H     1    ESP        -0.0002
     13 H          -3.2842    1.8927    0.8907 H     1    ESP         0.0001
     13 H          -3.6561    1.6225    0.8907 H     1    ESP         0.0009
     13 H          -3.9637    1.2809    0.8907 H     1    ESP         0.0024
     13 H          -4.1935    0.8828    0.8907 H     1    ESP         0.0047
     13 H          -4.3355    0.4456    0.8907 H     1    ESP         0.0074
     13 H          -4.3836   -0.0115    0.8907 H     1    ESP         0.0089
     13 H          -4.3355   -0.4687    0.8907 H     1    ESP         0.0076
     13 H          -4.1935   -0.9059    0.8907 H     1    ESP         0.0048
     13 H          -3.9637   -1.3040    0.8907 H     1    ESP         0.0025
     13 H          -3.6561   -1.6456    0.8907 H     1    ESP         0.0010
     13 H          -3.2842   -1.9158    0.8907 H     1    ESP         0.0001
     13 H          -2.8642   -2.1028    0.8907 H     1    ESP        -0.0002
     13 H          -2.4146   -2.1983    0.8907 H     1    ESP        -0.0001
     13 H          -1.9549   -2.1983    0.8907 H     1    ESP         0.0009
     13 H          -2.1848    2.3227    0.4442 H     1    ESP         0.0013
     13 H          -2.6402    2.2779    0.4442 H     1    ESP         0.0002
     13 H          -3.0780    2.1450    0.4442 H     1    ESP         0.0001
     13 H          -3.4816    1.9293    0.4442 H     1    ESP         0.0006
     13 H          -3.8353    1.6390    0.4442 H     1    ESP         0.0018
     13 H          -4.1256    1.2853    0.4442 H     1    ESP         0.0039
     13 H          -4.3413    0.8817    0.4442 H     1    ESP         0.0077
     13 H          -4.4742    0.4438    0.4442 H     1    ESP         0.0131
     13 H          -4.5190   -0.0115    0.4442 H     1    ESP         0.0166
     13 H          -4.4742   -0.4669    0.4442 H     1    ESP         0.0134
     13 H          -4.3413   -0.9048    0.4442 H     1    ESP         0.0080
     13 H          -4.1256   -1.3084    0.4442 H     1    ESP         0.0041
     13 H          -3.8353   -1.6621    0.4442 H     1    ESP         0.0019
     13 H          -3.4816   -1.9524    0.4442 H     1    ESP         0.0007
     13 H          -3.0780   -2.1681    0.4442 H     1    ESP         0.0001
     13 H          -2.6402   -2.3010    0.4442 H     1    ESP         0.0002
     13 H          -2.1848   -2.3458    0.4442 H     1    ESP         0.0012
     13 H          -2.0715    2.3658   -0.0201 H     1    ESP         0.0024
     13 H          -2.5235    2.3442   -0.0201 H     1    ESP         0.0006
     13 H          -2.9632    2.2376   -0.0201 H     1    ESP         0.0002
     13 H          -3.3748    2.0496   -0.0201 H     1    ESP         0.0005
     13 H          -3.7433    1.7871   -0.0201 H     1    ESP         0.0014
     13 H          -4.0556    1.4597   -0.0201 H     1    ESP         0.0033
     13 H          -4.3002    1.0790   -0.0201 H     1    ESP         0.0068
     13 H          -4.4684    0.6590   -0.0201 H     1    ESP         0.0130
     13 H          -4.5540    0.2147   -0.0201 H     1    ESP         0.0208
     13 H          -4.5540   -0.2378   -0.0201 H     1    ESP         0.0212
     13 H          -4.4684   -0.6821   -0.0201 H     1    ESP         0.0134
     13 H          -4.3002   -1.1021   -0.0201 H     1    ESP         0.0071
     13 H          -4.0556   -1.4828   -0.0201 H     1    ESP         0.0035
     13 H          -3.7433   -1.8102   -0.0201 H     1    ESP         0.0015
     13 H          -3.3748   -2.0727   -0.0201 H     1    ESP         0.0005
     13 H          -2.9632   -2.2606   -0.0201 H     1    ESP         0.0002
     13 H          -2.5235   -2.3673   -0.0201 H     1    ESP         0.0006
     13 H          -2.0715   -2.3889   -0.0201 H     1    ESP         0.0022
     13 H          -2.1848    2.3227   -0.4844 H     1    ESP         0.0013
     13 H          -2.6402    2.2779   -0.4844 H     1    ESP         0.0002
     13 H          -3.0780    2.1450   -0.4844 H     1    ESP         0.0001
     13 H          -3.4816    1.9293   -0.4844 H     1    ESP         0.0006
     13 H          -3.8353    1.6390   -0.4844 H     1    ESP         0.0018
     13 H          -4.1256    1.2853   -0.4844 H     1    ESP         0.0040
     13 H          -4.3413    0.8817   -0.4844 H     1    ESP         0.0079
     13 H          -4.4742    0.4438   -0.4844 H     1    ESP         0.0136
     13 H          -4.5190   -0.0115   -0.4844 H     1    ESP         0.0174
     13 H          -4.4742   -0.4669   -0.4844 H     1    ESP         0.0140
     13 H          -4.3413   -0.9048   -0.4844 H     1    ESP         0.0082
     13 H          -4.1256   -1.3084   -0.4844 H     1    ESP         0.0042
     13 H          -3.8353   -1.6621   -0.4844 H     1    ESP         0.0019
     13 H          -3.4816   -1.9524   -0.4844 H     1    ESP         0.0007
     13 H          -3.0780   -2.1681   -0.4844 H     1    ESP         0.0001
     13 H          -2.6402   -2.3010   -0.4844 H     1    ESP         0.0002
     13 H          -2.1848   -2.3458   -0.4844 H     1    ESP         0.0012
     13 H          -1.9549    2.1752   -0.9309 H     1    ESP         0.0009
     13 H          -2.4146    2.1752   -0.9309 H     1    ESP        -0.0001
     13 H          -2.8642    2.0797   -0.9309 H     1    ESP        -0.0002
     13 H          -3.2842    1.8927   -0.9309 H     1    ESP         0.0001
     13 H          -3.6561    1.6225   -0.9309 H     1    ESP         0.0010
     13 H          -3.9637    1.2809   -0.9309 H     1    ESP         0.0025
     13 H          -4.1935    0.8828   -0.9309 H     1    ESP         0.0049
     13 H          -4.3355    0.4456   -0.9309 H     1    ESP         0.0079
     13 H          -4.3836   -0.0115   -0.9309 H     1    ESP         0.0095
     13 H          -4.3355   -0.4687   -0.9309 H     1    ESP         0.0080
     13 H          -4.1935   -0.9059   -0.9309 H     1    ESP         0.0051
     13 H          -3.9637   -1.3040   -0.9309 H     1    ESP         0.0026
     13 H          -3.6561   -1.6456   -0.9309 H     1    ESP         0.0011
     13 H          -3.2842   -1.9158   -0.9309 H     1    ESP         0.0002
     13 H          -2.8642   -2.1028   -0.9309 H     1    ESP        -0.0002
     13 H          -2.4146   -2.1983   -0.9309 H     1    ESP        -0.0001
     13 H          -1.9549   -2.1983   -0.9309 H     1    ESP         0.0008
     13 H          -1.4010    1.8055   -1.3424 H     1    ESP        -0.0009
     13 H          -1.8411    1.9373   -1.3424 H     1    ESP        -0.0007
     13 H          -2.2998    1.9640   -1.3424 H     1    ESP        -0.0008
     13 H          -2.7523    1.8842   -1.3424 H     1    ESP        -0.0007
     13 H          -3.1742    1.7022   -1.3424 H     1    ESP        -0.0003
     13 H          -3.5428    1.4279   -1.3424 H     1    ESP         0.0005
     13 H          -3.8381    1.0759   -1.3424 H     1    ESP         0.0017
     13 H          -4.0443    0.6653   -1.3424 H     1    ESP         0.0031
     13 H          -4.1503    0.2182   -1.3424 H     1    ESP         0.0043
     13 H          -4.1503   -0.2413   -1.3424 H     1    ESP         0.0044
     13 H          -4.0443   -0.6884   -1.3424 H     1    ESP         0.0032
     13 H          -3.8381   -1.0990   -1.3424 H     1    ESP         0.0017
     13 H          -3.5428   -1.4509   -1.3424 H     1    ESP         0.0006
     13 H          -3.1742   -1.7253   -1.3424 H     1    ESP        -0.0002
     13 H          -2.7523   -1.9073   -1.3424 H     1    ESP        -0.0007
     13 H          -2.2998   -1.9871   -1.3424 H     1    ESP        -0.0008
     13 H          -1.8411   -1.9604   -1.3424 H     1    ESP        -0.0007
     13 H          -1.4010   -1.8286   -1.3424 H     1    ESP        -0.0008
     13 H          -1.0361    1.2184   -1.7030 H     1    ESP        -0.0058
     13 H          -1.4105    1.4827   -1.7030 H     1    ESP        -0.0033
     13 H          -1.8424    1.6362   -1.7030 H     1    ESP        -0.0021
     13 H          -2.2996    1.6674   -1.7030 H     1    ESP        -0.0016
     13 H          -2.7483    1.5742   -1.7030 H     1    ESP        -0.0011
     13 H          -3.1553    1.3633   -1.7030 H     1    ESP        -0.0006
     13 H          -3.4902    1.0505   -1.7030 H     1    ESP         0.0002
     13 H          -3.7283    0.6589   -1.7030 H     1    ESP         0.0010
     13 H          -3.8520    0.2176   -1.7030 H     1    ESP         0.0017
     13 H          -3.8520   -0.2407   -1.7030 H     1    ESP         0.0017
     13 H          -3.7283   -0.6820   -1.7030 H     1    ESP         0.0011
     13 H          -3.4902   -1.0736   -1.7030 H     1    ESP         0.0002
     13 H          -3.1553   -1.3864   -1.7030 H     1    ESP        -0.0005
     13 H          -2.7483   -1.5973   -1.7030 H     1    ESP        -0.0011
     13 H          -2.2996   -1.6905   -1.7030 H     1    ESP        -0.0016
     13 H          -1.8424   -1.6593   -1.7030 H     1    ESP        -0.0021
     13 H          -1.4105   -1.5058   -1.7030 H     1    ESP        -0.0032
     13 H          -1.0361   -1.2415   -1.7030 H     1    ESP        -0.0057
     13 H          -0.9422    0.4407   -1.9990 H     1    ESP        -0.0080
     13 H          -1.1719    0.8384   -1.9990 H     1    ESP        -0.0061
     13 H          -1.5236    1.1336   -1.9990 H     1    ESP        -0.0041
     13 H          -1.9552    1.2906   -1.9990 H     1    ESP        -0.0028
     13 H          -2.4144    1.2906   -1.9990 H     1    ESP        -0.0020
     13 H          -2.8459    1.1336   -1.9990 H     1    ESP        -0.0013
     13 H          -3.1977    0.8384   -1.9990 H     1    ESP        -0.0007
     13 H          -3.4273    0.4407   -1.9990 H     1    ESP        -0.0001
     13 H          -3.5070   -0.0115   -1.9990 H     1    ESP         0.0001
     13 H          -3.4273   -0.4638   -1.9990 H     1    ESP        -0.0001
     13 H          -3.1977   -0.8615   -1.9990 H     1    ESP        -0.0007
     13 H          -2.8459   -1.1567   -1.9990 H     1    ESP        -0.0013
     13 H          -2.4144   -1.3137   -1.9990 H     1    ESP        -0.0020
     13 H          -1.9552   -1.3137   -1.9990 H     1    ESP        -0.0027
     13 H          -1.5236   -1.1567   -1.9990 H     1    ESP        -0.0040
     13 H          -1.1719   -0.8615   -1.9990 H     1    ESP        -0.0060
     13 H          -0.9422   -0.4638   -1.9990 H     1    ESP        -0.0080
     13 H          -1.2740   -0.0115   -2.2190 H     1    ESP        -0.0060
     13 H          -1.3960    0.4438   -2.2190 H     1    ESP        -0.0053
     13 H          -1.7294    0.7772   -2.2190 H     1    ESP        -0.0039
     13 H          -2.1848    0.8992   -2.2190 H     1    ESP        -0.0027
     13 H          -2.6402    0.7772   -2.2190 H     1    ESP        -0.0019
     13 H          -2.9735    0.4438   -2.2190 H     1    ESP        -0.0013
     13 H          -3.0955   -0.0115   -2.2190 H     1    ESP        -0.0011
     13 H          -2.9735   -0.4669   -2.2190 H     1    ESP        -0.0013
     13 H          -2.6402   -0.8003   -2.2190 H     1    ESP        -0.0019
     13 H          -2.1848   -0.9223   -2.2190 H     1    ESP        -0.0027
     13 H          -1.7294   -0.8003   -2.2190 H     1    ESP        -0.0039
     13 H          -1.3960   -0.4669   -2.2190 H     1    ESP        -0.0053
     13 H          -1.7204   -0.0115   -2.3544 H     1    ESP        -0.0042
     13 H          -1.9526    0.3906   -2.3544 H     1    ESP        -0.0035
     13 H          -2.4169    0.3906   -2.3544 H     1    ESP        -0.0025
     13 H          -2.6491   -0.0115   -2.3544 H     1    ESP        -0.0020
     13 H          -2.4169   -0.4137   -2.3544 H     1    ESP        -0.0025
     13 H          -1.9526   -0.4137   -2.3544 H     1    ESP        -0.0035
     13 H          -2.1848   -0.0115   -2.4001 H     1    ESP        -0.0030
     13 H          -0.7573   -2.1503    1.6084 H     1    ESP         0.0008
     13 H          -0.5207   -2.5602    1.6084 H     1    ESP         0.0025
     13 H          -0.0474   -2.5602    1.6084 H     1    ESP         0.0020
     13 H          -1.1923   -2.1503    1.4098 H     1    ESP         0.0014
     13 H          -1.0706   -2.6045    1.4098 H     1    ESP         0.0033
     13 H          -0.7382   -2.9369    1.4098 H     1    ESP         0.0041
     13 H          -0.2840   -3.0586    1.4098 H     1    ESP         0.0043
     13 H           0.1701   -2.9369    1.4098 H     1    ESP         0.0037
     13 H          -1.5321   -2.3836    1.0967 H     1    ESP         0.0028
     13 H          -1.3635   -2.8187    1.0967 H     1    ESP         0.0042
     13 H          -1.0492   -3.1635    1.0967 H     1    ESP         0.0050
     13 H          -0.6315   -3.3715    1.0967 H     1    ESP         0.0053
     13 H          -0.1669   -3.4146    1.0967 H     1    ESP         0.0054
     13 H           0.2819   -3.2869    1.0967 H     1    ESP         0.0051
     13 H           0.6543   -3.0057    1.0967 H     1    ESP         0.0045
     13 H          -1.7374   -2.6226    0.6944 H     1    ESP         0.0039
     13 H          -1.5204   -3.0486    0.6944 H     1    ESP         0.0049
     13 H          -1.1823   -3.3866    0.6944 H     1    ESP         0.0056
     13 H          -0.7563   -3.6037    0.6944 H     1    ESP         0.0059
     13 H          -0.2840   -3.6785    0.6944 H     1    ESP         0.0060
     13 H           0.1882   -3.6037    0.6944 H     1    ESP         0.0061
     13 H           0.6142   -3.3866    0.6944 H     1    ESP         0.0062
     13 H          -1.8796   -2.6188    0.2356 H     1    ESP         0.0039
     13 H          -1.6830   -3.0494    0.2356 H     1    ESP         0.0050
     13 H          -1.3730   -3.4071    0.2356 H     1    ESP         0.0057
     13 H          -0.9748   -3.6630    0.2356 H     1    ESP         0.0061
     13 H          -0.5207   -3.7963    0.2356 H     1    ESP         0.0063
     13 H          -0.0474   -3.7963    0.2356 H     1    ESP         0.0064
     13 H           0.4068   -3.6630    0.2356 H     1    ESP         0.0066
     13 H           0.8049   -3.4071    0.2356 H     1    ESP         0.0072
     13 H          -1.8796   -2.6188   -0.2426 H     1    ESP         0.0039
     13 H          -1.6830   -3.0494   -0.2426 H     1    ESP         0.0050
     13 H          -1.3730   -3.4071   -0.2426 H     1    ESP         0.0057
     13 H          -0.9748   -3.6630   -0.2426 H     1    ESP         0.0061
     13 H          -0.5207   -3.7963   -0.2426 H     1    ESP         0.0063
     13 H          -0.0474   -3.7963   -0.2426 H     1    ESP         0.0064
     13 H           0.4068   -3.6630   -0.2426 H     1    ESP         0.0066
     13 H           0.8049   -3.4071   -0.2426 H     1    ESP         0.0071
     13 H          -1.7374   -2.6226   -0.7014 H     1    ESP         0.0039
     13 H          -1.5204   -3.0486   -0.7014 H     1    ESP         0.0050
     13 H          -1.1823   -3.3866   -0.7014 H     1    ESP         0.0056
     13 H          -0.7563   -3.6037   -0.7014 H     1    ESP         0.0059
     13 H          -0.2840   -3.6785   -0.7014 H     1    ESP         0.0060
     13 H           0.1882   -3.6037   -0.7014 H     1    ESP         0.0061
     13 H           0.6142   -3.3866   -0.7014 H     1    ESP         0.0061
     13 H          -1.5321   -2.3836   -1.1037 H     1    ESP         0.0028
     13 H          -1.3635   -2.8187   -1.1037 H     1    ESP         0.0042
     13 H          -1.0492   -3.1635   -1.1037 H     1    ESP         0.0050
     13 H          -0.6315   -3.3715   -1.1037 H     1    ESP         0.0053
     13 H          -0.1669   -3.4146   -1.1037 H     1    ESP         0.0054
     13 H           0.2819   -3.2869   -1.1037 H     1    ESP         0.0051
     13 H           0.6543   -3.0057   -1.1037 H     1    ESP         0.0045
     13 H          -1.1923   -2.1503   -1.4168 H     1    ESP         0.0014
     13 H          -1.0706   -2.6045   -1.4168 H     1    ESP         0.0033
     13 H          -0.7382   -2.9369   -1.4168 H     1    ESP         0.0042
     13 H          -0.2840   -3.0586   -1.4168 H     1    ESP         0.0043
     13 H           0.1701   -2.9369   -1.4168 H     1    ESP         0.0037
     13 H          -0.7573   -2.1503   -1.6155 H     1    ESP         0.0009
     13 H          -0.5207   -2.5602   -1.6155 H     1    ESP         0.0026
     13 H          -0.0474   -2.5602   -1.6155 H     1    ESP         0.0021
     13 H           2.6771   -2.1402    1.6308 H     1    ESP         0.0027
     13 H           1.9671   -2.5501    1.6308 H     1    ESP         0.0026
     13 H           2.4404   -2.5501    1.6308 H     1    ESP         0.0035
     13 H           3.1120   -2.1402    1.4322 H     1    ESP         0.0040
     13 H           1.7496   -2.9268    1.4322 H     1    ESP         0.0039
     13 H           2.2037   -3.0485    1.4322 H     1    ESP         0.0047
     13 H           2.6579   -2.9268    1.4322 H     1    ESP         0.0049
     13 H           2.9903   -2.5944    1.4322 H     1    ESP         0.0047
     13 H           3.4734   -2.1402    1.1190 H     1    ESP         0.0052
     13 H           3.3877   -1.6816    1.1190 H     1    ESP         0.0044
     13 H           1.4386   -3.1534    1.1190 H     1    ESP         0.0048
     13 H           1.8563   -3.3614    1.1190 H     1    ESP         0.0053
     13 H           2.3209   -3.4045    1.1190 H     1    ESP         0.0056
     13 H           2.7697   -3.2768    1.1190 H     1    ESP         0.0058
     13 H           3.1420   -2.9956    1.1190 H     1    ESP         0.0057
     13 H           3.3877   -2.5989    1.1190 H     1    ESP         0.0055
     13 H           3.7319   -2.1402    0.7168 H     1    ESP         0.0061
     13 H           3.6571   -1.6680    0.7168 H     1    ESP         0.0063
     13 H           1.3055   -3.3766    0.7168 H     1    ESP         0.0060
     13 H           1.7315   -3.5936    0.7168 H     1    ESP         0.0060
     13 H           2.2037   -3.6684    0.7168 H     1    ESP         0.0061
     13 H           2.6760   -3.5936    0.7168 H     1    ESP         0.0062
     13 H           3.1020   -3.3766    0.7168 H     1    ESP         0.0062
     13 H           3.4401   -3.0385    0.7168 H     1    ESP         0.0062
     13 H           3.6571   -2.6125    0.7168 H     1    ESP         0.0061
     13 H           3.8666   -2.1402    0.2580 H     1    ESP         0.0066
     13 H           3.7993   -1.6717    0.2580 H     1    ESP         0.0075
     13 H           1.1148   -3.3970    0.2580 H     1    ESP         0.0071
     13 H           1.5129   -3.6529    0.2580 H     1    ESP         0.0065
     13 H           1.9671   -3.7862    0.2580 H     1    ESP         0.0064
     13 H           2.4404   -3.7862    0.2580 H     1    ESP         0.0064
     13 H           2.8945   -3.6529    0.2580 H     1    ESP         0.0064
     13 H           3.2927   -3.3970    0.2580 H     1    ESP         0.0064
     13 H           3.6027   -3.0393    0.2580 H     1    ESP         0.0064
     13 H           3.7993   -2.6087    0.2580 H     1    ESP         0.0064
     13 H           3.8666   -2.1402   -0.2202 H     1    ESP         0.0066
     13 H           3.7993   -1.6717   -0.2202 H     1    ESP         0.0074
     13 H           1.1148   -3.3970   -0.2202 H     1    ESP         0.0071
     13 H           1.5129   -3.6529   -0.2202 H     1    ESP         0.0065
     13 H           1.9671   -3.7862   -0.2202 H     1    ESP         0.0064
     13 H           2.4404   -3.7862   -0.2202 H     1    ESP         0.0064
     13 H           2.8945   -3.6529   -0.2202 H     1    ESP         0.0064
     13 H           3.2927   -3.3970   -0.2202 H     1    ESP         0.0064
     13 H           3.6027   -3.0393   -0.2202 H     1    ESP         0.0064
     13 H           3.7993   -2.6087   -0.2202 H     1    ESP         0.0064
     13 H           3.7319   -2.1402   -0.6790 H     1    ESP         0.0060
     13 H           3.6571   -1.6680   -0.6790 H     1    ESP         0.0062
     13 H           1.3055   -3.3766   -0.6790 H     1    ESP         0.0061
     13 H           1.7315   -3.5936   -0.6790 H     1    ESP         0.0060
     13 H           2.2037   -3.6684   -0.6790 H     1    ESP         0.0061
     13 H           2.6760   -3.5936   -0.6790 H     1    ESP         0.0062
     13 H           3.1020   -3.3766   -0.6790 H     1    ESP         0.0062
     13 H           3.4401   -3.0385   -0.6790 H     1    ESP         0.0062
     13 H           3.6571   -2.6125   -0.6790 H     1    ESP         0.0061
     13 H           3.4734   -2.1402   -1.0813 H     1    ESP         0.0051
     13 H           3.3877   -1.6816   -1.0813 H     1    ESP         0.0043
     13 H           1.4386   -3.1534   -1.0813 H     1    ESP         0.0049
     13 H           1.8563   -3.3614   -1.0813 H     1    ESP         0.0054
     13 H           2.3209   -3.4045   -1.0813 H     1    ESP         0.0056
     13 H           2.7697   -3.2768   -1.0813 H     1    ESP         0.0057
     13 H           3.1420   -2.9956   -1.0813 H     1    ESP         0.0057
     13 H           3.3877   -2.5989   -1.0813 H     1    ESP         0.0055
     13 H           3.1120   -2.1402   -1.3944 H     1    ESP         0.0039
     13 H           1.7496   -2.9268   -1.3944 H     1    ESP         0.0039
     13 H           2.2037   -3.0485   -1.3944 H     1    ESP         0.0047
     13 H           2.6579   -2.9268   -1.3944 H     1    ESP         0.0049
     13 H           2.9903   -2.5944   -1.3944 H     1    ESP         0.0047
     13 H           2.6771   -2.1402   -1.5931 H     1    ESP         0.0026
     13 H           1.9671   -2.5501   -1.5931 H     1    ESP         0.0026
     13 H           2.4404   -2.5501   -1.5931 H     1    ESP         0.0035
     13 H           3.9147    0.0182    1.6429 H     1    ESP         0.0036
     13 H           3.6780    0.4281    1.6429 H     1    ESP         0.0028
     13 H           3.6780   -0.3917    1.6429 H     1    ESP         0.0027
     13 H           4.3496    0.0182    1.4443 H     1    ESP         0.0050
     13 H           4.2279    0.4723    1.4443 H     1    ESP         0.0048
     13 H           3.8955    0.8048    1.4443 H     1    ESP         0.0040
     13 H           3.8955   -0.7684    1.4443 H     1    ESP         0.0040
     13 H           4.2279   -0.4359    1.4443 H     1    ESP         0.0048
     13 H           4.7110    0.0182    1.1311 H     1    ESP         0.0058
     13 H           4.6253    0.4769    1.1311 H     1    ESP         0.0058
     13 H           4.3796    0.8736    1.1311 H     1    ESP         0.0055
     13 H           4.0073    1.1548    1.1311 H     1    ESP         0.0051
     13 H           4.0073   -1.1184    1.1311 H     1    ESP         0.0051
     13 H           4.3796   -0.8372    1.1311 H     1    ESP         0.0055
     13 H           4.6253   -0.4405    1.1311 H     1    ESP         0.0058
     13 H           4.9695    0.0182    0.7289 H     1    ESP         0.0063
     13 H           4.8947    0.4904    0.7289 H     1    ESP         0.0063
     13 H           4.6777    0.9164    0.7289 H     1    ESP         0.0062
     13 H           4.3396    1.2545    0.7289 H     1    ESP         0.0061
     13 H           3.9136    1.4716    0.7289 H     1    ESP         0.0062
     13 H           3.9136   -1.4352    0.7289 H     1    ESP         0.0062
     13 H           4.3396   -1.2181    0.7289 H     1    ESP         0.0061
     13 H           4.6777   -0.8800    0.7289 H     1    ESP         0.0062
     13 H           4.8947   -0.4540    0.7289 H     1    ESP         0.0063
     13 H           5.1042    0.0182    0.2701 H     1    ESP         0.0065
     13 H           5.0369    0.4867    0.2701 H     1    ESP         0.0065
     13 H           4.8403    0.9172    0.2701 H     1    ESP         0.0064
     13 H           4.5303    1.2749    0.2701 H     1    ESP         0.0065
     13 H           4.1321    1.5308    0.2701 H     1    ESP         0.0068
     13 H           4.1321   -1.4944    0.2701 H     1    ESP         0.0068
     13 H           4.5303   -1.2385    0.2701 H     1    ESP         0.0065
     13 H           4.8403   -0.8808    0.2701 H     1    ESP         0.0064
     13 H           5.0369   -0.4503    0.2701 H     1    ESP         0.0065
     13 H           5.1042    0.0182   -0.2081 H     1    ESP         0.0065
     13 H           5.0369    0.4867   -0.2081 H     1    ESP         0.0065
     13 H           4.8403    0.9172   -0.2081 H     1    ESP         0.0064
     13 H           4.5303    1.2749   -0.2081 H     1    ESP         0.0065
     13 H           4.1321    1.5308   -0.2081 H     1    ESP         0.0068
     13 H           4.1321   -1.4944   -0.2081 H     1    ESP         0.0068
     13 H           4.5303   -1.2385   -0.2081 H     1    ESP         0.0065
     13 H           4.8403   -0.8808   -0.2081 H     1    ESP         0.0064
     13 H           5.0369   -0.4503   -0.2081 H     1    ESP         0.0065
     13 H           4.9695    0.0182   -0.6669 H     1    ESP         0.0063
     13 H           4.8947    0.4904   -0.6669 H     1    ESP         0.0062
     13 H           4.6777    0.9164   -0.6669 H     1    ESP         0.0062
     13 H           4.3396    1.2545   -0.6669 H     1    ESP         0.0061
     13 H           3.9136    1.4716   -0.6669 H     1    ESP         0.0061
     13 H           3.9136   -1.4352   -0.6669 H     1    ESP         0.0061
     13 H           4.3396   -1.2181   -0.6669 H     1    ESP         0.0061
     13 H           4.6777   -0.8800   -0.6669 H     1    ESP         0.0062
     13 H           4.8947   -0.4540   -0.6669 H     1    ESP         0.0062
     13 H           4.7110    0.0182   -1.0692 H     1    ESP         0.0058
     13 H           4.6253    0.4769   -1.0692 H     1    ESP         0.0057
     13 H           4.3796    0.8736   -1.0692 H     1    ESP         0.0055
     13 H           4.0073    1.1548   -1.0692 H     1    ESP         0.0050
     13 H           4.0073   -1.1184   -1.0692 H     1    ESP         0.0050
     13 H           4.3796   -0.8372   -1.0692 H     1    ESP         0.0055
     13 H           4.6253   -0.4405   -1.0692 H     1    ESP         0.0057
     13 H           4.3496    0.0182   -1.3823 H     1    ESP         0.0049
     13 H           4.2279    0.4723   -1.3823 H     1    ESP         0.0047
     13 H           3.8955    0.8048   -1.3823 H     1    ESP         0.0040
     13 H           3.8955   -0.7684   -1.3823 H     1    ESP         0.0039
     13 H           4.2279   -0.4359   -1.3823 H     1    ESP         0.0047
     13 H           3.9147    0.0182   -1.5810 H     1    ESP         0.0035
     13 H           3.6780    0.4281   -1.5810 H     1    ESP         0.0026
     13 H           3.6780   -0.3917   -1.5810 H     1    ESP         0.0026
     13 H           2.6543    2.1634    1.6327 H     1    ESP         0.0027
     13 H           2.4176    2.5733    1.6327 H     1    ESP         0.0036
     13 H           1.9443    2.5733    1.6327 H     1    ESP         0.0026
     13 H           3.0893    2.1634    1.4341 H     1    ESP         0.0040
     13 H           2.9676    2.6176    1.4341 H     1    ESP         0.0047
     13 H           2.6351    2.9500    1.4341 H     1    ESP         0.0049
     13 H           2.1810    3.0717    1.4341 H     1    ESP         0.0047
     13 H           1.7268    2.9500    1.4341 H     1    ESP         0.0039
     13 H           3.4506    2.1634    1.1209 H     1    ESP         0.0052
     13 H           3.3649    2.6221    1.1209 H     1    ESP         0.0055
     13 H           3.1193    3.0188    1.1209 H     1    ESP         0.0057
     13 H           2.7469    3.3000    1.1209 H     1    ESP         0.0058
     13 H           2.2981    3.4277    1.1209 H     1    ESP         0.0056
     13 H           1.8335    3.3846    1.1209 H     1    ESP         0.0054
     13 H           1.4158    3.1766    1.1209 H     1    ESP         0.0049
     13 H           3.7092    2.1634    0.7187 H     1    ESP         0.0061
     13 H           3.6344    2.6357    0.7187 H     1    ESP         0.0061
     13 H           3.4173    3.0617    0.7187 H     1    ESP         0.0062
     13 H           3.0792    3.3997    0.7187 H     1    ESP         0.0062
     13 H           2.6532    3.6168    0.7187 H     1    ESP         0.0062
     13 H           2.1810    3.6916    0.7187 H     1    ESP         0.0061
     13 H           1.7087    3.6168    0.7187 H     1    ESP         0.0060
     13 H           1.2827    3.3997    0.7187 H     1    ESP         0.0060
     13 H           3.6344    1.6912    0.7187 H     1    ESP         0.0063
     13 H           3.8439    2.1634    0.2599 H     1    ESP         0.0066
     13 H           3.7765    2.6319    0.2599 H     1    ESP         0.0064
     13 H           3.5799    3.0624    0.2599 H     1    ESP         0.0064
     13 H           3.2699    3.4202    0.2599 H     1    ESP         0.0064
     13 H           2.8718    3.6760    0.2599 H     1    ESP         0.0064
     13 H           2.4176    3.8094    0.2599 H     1    ESP         0.0064
     13 H           1.9443    3.8094    0.2599 H     1    ESP         0.0064
     13 H           1.4902    3.6760    0.2599 H     1    ESP         0.0064
     13 H           1.0920    3.4202    0.2599 H     1    ESP         0.0070
     13 H           3.7765    1.6949    0.2599 H     1    ESP         0.0075
     13 H           3.8439    2.1634   -0.2183 H     1    ESP         0.0066
     13 H           3.7765    2.6319   -0.2183 H     1    ESP         0.0064
     13 H           3.5799    3.0624   -0.2183 H     1    ESP         0.0064
     13 H           3.2699    3.4202   -0.2183 H     1    ESP         0.0064
     13 H           2.8718    3.6760   -0.2183 H     1    ESP         0.0064
     13 H           2.4176    3.8094   -0.2183 H     1    ESP         0.0064
     13 H           1.9443    3.8094   -0.2183 H     1    ESP         0.0064
     13 H           1.4902    3.6760   -0.2183 H     1    ESP         0.0065
     13 H           1.0920    3.4202   -0.2183 H     1    ESP         0.0071
     13 H           3.7765    1.6949   -0.2183 H     1    ESP         0.0075
     13 H           3.7092    2.1634   -0.6771 H     1    ESP         0.0060
     13 H           3.6344    2.6357   -0.6771 H     1    ESP         0.0061
     13 H           3.4173    3.0617   -0.6771 H     1    ESP         0.0062
     13 H           3.0792    3.3997   -0.6771 H     1    ESP         0.0062
     13 H           2.6532    3.6168   -0.6771 H     1    ESP         0.0062
     13 H           2.1810    3.6916   -0.6771 H     1    ESP         0.0061
     13 H           1.7087    3.6168   -0.6771 H     1    ESP         0.0060
     13 H           1.2827    3.3997   -0.6771 H     1    ESP         0.0061
     13 H           3.6344    1.6912   -0.6771 H     1    ESP         0.0062
     13 H           3.4506    2.1634   -1.0794 H     1    ESP         0.0051
     13 H           3.3649    2.6221   -1.0794 H     1    ESP         0.0055
     13 H           3.1193    3.0188   -1.0794 H     1    ESP         0.0057
     13 H           2.7469    3.3000   -1.0794 H     1    ESP         0.0057
     13 H           2.2981    3.4277   -1.0794 H     1    ESP         0.0056
     13 H           1.8335    3.3846   -1.0794 H     1    ESP         0.0054
     13 H           1.4158    3.1766   -1.0794 H     1    ESP         0.0049
     13 H           3.0893    2.1634   -1.3925 H     1    ESP         0.0039
     13 H           2.9676    2.6176   -1.3925 H     1    ESP         0.0047
     13 H           2.6351    2.9500   -1.3925 H     1    ESP         0.0049
     13 H           2.1810    3.0717   -1.3925 H     1    ESP         0.0047
     13 H           1.7268    2.9500   -1.3925 H     1    ESP         0.0039
     13 H           2.6543    2.1634   -1.5912 H     1    ESP         0.0026
     13 H           2.4176    2.5733   -1.5912 H     1    ESP         0.0035
     13 H           1.9443    2.5733   -1.5912 H     1    ESP         0.0026
     13 H          -0.0701    2.5571    1.6102 H     1    ESP         0.0020
     13 H          -0.5434    2.5571    1.6102 H     1    ESP         0.0026
     13 H          -0.7801    2.1472    1.6102 H     1    ESP         0.0008
     13 H           0.1474    2.9338    1.4115 H     1    ESP         0.0037
     13 H          -0.3068    3.0555    1.4115 H     1    ESP         0.0043
     13 H          -0.7609    2.9338    1.4115 H     1    ESP         0.0042
     13 H          -1.0934    2.6013    1.4115 H     1    ESP         0.0033
     13 H          -1.2151    2.1472    1.4115 H     1    ESP         0.0014
     13 H           0.6315    3.0026    1.0984 H     1    ESP         0.0045
     13 H           0.2592    3.2837    1.0984 H     1    ESP         0.0051
     13 H          -0.1896    3.4114    1.0984 H     1    ESP         0.0054
     13 H          -0.6542    3.3684    1.0984 H     1    ESP         0.0053
     13 H          -1.0719    3.1604    1.0984 H     1    ESP         0.0050
     13 H          -1.3863    2.8156    1.0984 H     1    ESP         0.0042
     13 H          -1.5548    2.3805    1.0984 H     1    ESP         0.0029
     13 H           0.5915    3.3835    0.6961 H     1    ESP         0.0062
     13 H           0.1655    3.6006    0.6961 H     1    ESP         0.0061
     13 H          -0.3068    3.6754    0.6961 H     1    ESP         0.0060
     13 H          -0.7790    3.6006    0.6961 H     1    ESP         0.0059
     13 H          -1.2050    3.3835    0.6961 H     1    ESP         0.0056
     13 H          -1.5431    3.0454    0.6961 H     1    ESP         0.0050
     13 H          -1.7602    2.6194    0.6961 H     1    ESP         0.0039
     13 H           0.7822    3.4039    0.2373 H     1    ESP         0.0072
     13 H           0.3840    3.6598    0.2373 H     1    ESP         0.0066
     13 H          -0.0701    3.7932    0.2373 H     1    ESP         0.0064
     13 H          -0.5434    3.7932    0.2373 H     1    ESP         0.0063
     13 H          -0.9976    3.6598    0.2373 H     1    ESP         0.0061
     13 H          -1.3957    3.4039    0.2373 H     1    ESP         0.0057
     13 H          -1.7057    3.0462    0.2373 H     1    ESP         0.0051
     13 H          -1.9023    2.6157    0.2373 H     1    ESP         0.0040
     13 H           0.7822    3.4039   -0.2409 H     1    ESP         0.0072
     13 H           0.3840    3.6598   -0.2409 H     1    ESP         0.0066
     13 H          -0.0701    3.7932   -0.2409 H     1    ESP         0.0064
     13 H          -0.5434    3.7932   -0.2409 H     1    ESP         0.0063
     13 H          -0.9976    3.6598   -0.2409 H     1    ESP         0.0061
     13 H          -1.3957    3.4039   -0.2409 H     1    ESP         0.0057
     13 H          -1.7057    3.0462   -0.2409 H     1    ESP         0.0051
     13 H          -1.9023    2.6157   -0.2409 H     1    ESP         0.0040
     13 H           0.5915    3.3835   -0.6997 H     1    ESP         0.0061
     13 H           0.1655    3.6006   -0.6997 H     1    ESP         0.0061
     13 H          -0.3068    3.6754   -0.6997 H     1    ESP         0.0060
     13 H          -0.7790    3.6006   -0.6997 H     1    ESP         0.0059
     13 H          -1.2050    3.3835   -0.6997 H     1    ESP         0.0056
     13 H          -1.5431    3.0454   -0.6997 H     1    ESP         0.0050
     13 H          -1.7602    2.6194   -0.6997 H     1    ESP         0.0039
     13 H           0.6315    3.0026   -1.1020 H     1    ESP         0.0044
     13 H           0.2592    3.2837   -1.1020 H     1    ESP         0.0051
     13 H          -0.1896    3.4114   -1.1020 H     1    ESP         0.0054
     13 H          -0.6542    3.3684   -1.1020 H     1    ESP         0.0053
     13 H          -1.0719    3.1604   -1.1020 H     1    ESP         0.0050
     13 H          -1.3863    2.8156   -1.1020 H     1    ESP         0.0043
     13 H          -1.5548    2.3805   -1.1020 H     1    ESP         0.0029
     13 H           0.1474    2.9338   -1.4151 H     1    ESP         0.0037
     13 H          -0.3068    3.0555   -1.4151 H     1    ESP         0.0043
     13 H          -0.7609    2.9338   -1.4151 H     1    ESP         0.0042
     13 H          -1.0934    2.6013   -1.4151 H     1    ESP         0.0033
     13 H          -1.2151    2.1472   -1.4151 H     1    ESP         0.0015
     13 H          -0.0701    2.5571   -1.6137 H     1    ESP         0.0020
     13 H          -0.5434    2.5571   -1.6137 H     1    ESP         0.0026
     13 H          -0.7801    2.1472   -1.6137 H     1    ESP         0.0009
     13 H           0.2653   -1.2149    2.4021 H     1    ESP        -0.0054
     13 H           0.7336   -1.2149    2.3560 H     1    ESP        -0.0057
     13 H           0.4995   -0.8095    2.3560 H     1    ESP        -0.0070
     13 H           0.0312   -0.8095    2.3560 H     1    ESP        -0.0067
     13 H          -0.2029   -1.2149    2.3560 H     1    ESP        -0.0051
     13 H           0.0312   -1.6204    2.3560 H     1    ESP        -0.0038
     13 H           0.4995   -1.6204    2.3560 H     1    ESP        -0.0041
     13 H           0.7246   -0.4195    2.2194 H     1    ESP        -0.0090
     13 H          -0.6531   -1.2149    2.2194 H     1    ESP        -0.0049
     13 H          -0.5300   -1.6742    2.2194 H     1    ESP        -0.0031
     13 H          -0.1939   -2.0103    2.2194 H     1    ESP        -0.0021
     13 H           0.2653   -2.1334    2.2194 H     1    ESP        -0.0020
     13 H           0.7246   -2.0103    2.2194 H     1    ESP        -0.0028
     13 H           0.9320   -0.0602    1.9976 H     1    ESP        -0.0115
     13 H          -0.9876   -1.6710    1.9976 H     1    ESP        -0.0027
     13 H          -0.7561   -2.0720    1.9976 H     1    ESP        -0.0011
     13 H          -0.4013   -2.3697    1.9976 H     1    ESP        -0.0002
     13 H           0.0338   -2.5281    1.9976 H     1    ESP        -0.0000
     13 H           0.4969   -2.5281    1.9976 H     1    ESP        -0.0005
     13 H           0.9320   -2.3697    1.9976 H     1    ESP        -0.0013
     13 H           0.6106   -2.8765    1.6991 H     1    ESP         0.0012
     13 H           0.9505   -3.3237    0.9205 H     1    ESP         0.0047
     13 H           0.9505   -3.3237   -0.9164 H     1    ESP         0.0047
     13 H           0.6106   -2.8765   -1.6950 H     1    ESP         0.0013
     13 H           0.9320   -0.0602   -1.9935 H     1    ESP        -0.0114
     13 H          -0.9876   -1.6710   -1.9935 H     1    ESP        -0.0027
     13 H          -0.7561   -2.0720   -1.9935 H     1    ESP        -0.0010
     13 H          -0.4013   -2.3697   -1.9935 H     1    ESP        -0.0001
     13 H           0.0338   -2.5281   -1.9935 H     1    ESP         0.0000
     13 H           0.4969   -2.5281   -1.9935 H     1    ESP        -0.0005
     13 H           0.9320   -2.3697   -1.9935 H     1    ESP        -0.0013
     13 H           0.7246   -0.4195   -2.2152 H     1    ESP        -0.0089
     13 H          -0.6531   -1.2149   -2.2152 H     1    ESP        -0.0048
     13 H          -0.5300   -1.6742   -2.2152 H     1    ESP        -0.0031
     13 H          -0.1939   -2.0103   -2.2152 H     1    ESP        -0.0020
     13 H           0.2653   -2.1334   -2.2152 H     1    ESP        -0.0020
     13 H           0.7246   -2.0103   -2.2152 H     1    ESP        -0.0027
     13 H           0.7336   -1.2149   -2.3518 H     1    ESP        -0.0057
     13 H           0.4995   -0.8095   -2.3518 H     1    ESP        -0.0070
     13 H           0.0312   -0.8095   -2.3518 H     1    ESP        -0.0067
     13 H          -0.2029   -1.2149   -2.3518 H     1    ESP        -0.0050
     13 H           0.0312   -1.6204   -2.3518 H     1    ESP        -0.0037
     13 H           0.4995   -1.6204   -2.3518 H     1    ESP        -0.0041
     13 H           0.2653   -1.2149   -2.3979 H     1    ESP        -0.0053
     13 H           1.6611   -1.1989    2.4146 H     1    ESP        -0.0044
     13 H           2.1293   -1.1989    2.3685 H     1    ESP        -0.0033
     13 H           1.8952   -0.7935    2.3685 H     1    ESP        -0.0051
     13 H           1.4270   -0.7935    2.3685 H     1    ESP        -0.0062
     13 H           1.1929   -1.1989    2.3685 H     1    ESP        -0.0054
     13 H           1.4270   -1.6044    2.3685 H     1    ESP        -0.0036
     13 H           1.8952   -1.6044    2.3685 H     1    ESP        -0.0027
     13 H           2.5795   -1.1989    2.2319 H     1    ESP        -0.0022
     13 H           1.2019   -0.4036    2.2319 H     1    ESP        -0.0084
     13 H           1.2019   -1.9943    2.2319 H     1    ESP        -0.0026
     13 H           1.6611   -2.1174    2.2319 H     1    ESP        -0.0014
     13 H           2.1203   -1.9943    2.2319 H     1    ESP        -0.0009
     13 H           2.4565   -1.6582    2.2319 H     1    ESP        -0.0013
     13 H           2.9945   -1.1989    2.0101 H     1    ESP        -0.0009
     13 H           0.9944   -0.0442    2.0101 H     1    ESP        -0.0113
     13 H           0.9944   -2.3537    2.0101 H     1    ESP        -0.0013
     13 H           1.4295   -2.5121    2.0101 H     1    ESP        -0.0002
     13 H           1.8926   -2.5121    2.0101 H     1    ESP         0.0006
     13 H           2.3278   -2.3537    2.0101 H     1    ESP         0.0009
     13 H           2.6825   -2.0560    2.0101 H     1    ESP         0.0007
     13 H           2.9140   -1.6550    2.0101 H     1    ESP         0.0000
     13 H           1.0928   -2.7980    1.7116 H     1    ESP         0.0010
     13 H           1.5453   -2.8920    1.7116 H     1    ESP         0.0018
     13 H           3.1111   -2.0807    1.7116 H     1    ESP         0.0023
     13 H           3.2952   -1.6568    1.7116 H     1    ESP         0.0015
     13 H           1.0888   -3.1106    1.3480 H     1    ESP         0.0029
     13 H           3.6028   -1.6591    1.3480 H     1    ESP         0.0031
     13 H           3.8299   -1.6599    0.9330 H     1    ESP         0.0048
     13 H           3.8299   -1.6599   -0.9038 H     1    ESP         0.0047
     13 H           1.0888   -3.1106   -1.3188 H     1    ESP         0.0030
     13 H           3.6028   -1.6591   -1.3188 H     1    ESP         0.0030
     13 H           1.0928   -2.7980   -1.6825 H     1    ESP         0.0010
     13 H           1.5453   -2.8920   -1.6825 H     1    ESP         0.0018
     13 H           3.1111   -2.0807   -1.6825 H     1    ESP         0.0022
     13 H           3.2952   -1.6568   -1.6825 H     1    ESP         0.0014
     13 H           2.9945   -1.1989   -1.9809 H     1    ESP        -0.0010
     13 H           0.9944   -0.0442   -1.9809 H     1    ESP        -0.0115
     13 H           0.9944   -2.3537   -1.9809 H     1    ESP        -0.0013
     13 H           1.4295   -2.5121   -1.9809 H     1    ESP        -0.0002
     13 H           1.8926   -2.5121   -1.9809 H     1    ESP         0.0005
     13 H           2.3278   -2.3537   -1.9809 H     1    ESP         0.0009
     13 H           2.6825   -2.0560   -1.9809 H     1    ESP         0.0006
     13 H           2.9140   -1.6550   -1.9809 H     1    ESP        -0.0001
     13 H           2.5795   -1.1989   -2.2027 H     1    ESP        -0.0023
     13 H           1.2019   -0.4036   -2.2027 H     1    ESP        -0.0085
     13 H           1.2019   -1.9943   -2.2027 H     1    ESP        -0.0026
     13 H           1.6611   -2.1174   -2.2027 H     1    ESP        -0.0015
     13 H           2.1203   -1.9943   -2.2027 H     1    ESP        -0.0010
     13 H           2.4565   -1.6582   -2.2027 H     1    ESP        -0.0013
     13 H           2.1293   -1.1989   -2.3393 H     1    ESP        -0.0034
     13 H           1.8952   -0.7935   -2.3393 H     1    ESP        -0.0052
     13 H           1.4270   -0.7935   -2.3393 H     1    ESP        -0.0063
     13 H           1.1929   -1.1989   -2.3393 H     1    ESP        -0.0055
     13 H           1.4270   -1.6044   -2.3393 H     1    ESP        -0.0036
     13 H           1.8952   -1.6044   -2.3393 H     1    ESP        -0.0027
     13 H           1.6611   -1.1989   -2.3854 H     1    ESP        -0.0044
     13 H           2.3553    0.0124    2.4214 H     1    ESP        -0.0042
     13 H           2.8235    0.0124    2.3753 H     1    ESP        -0.0025
     13 H           2.5894    0.4179    2.3753 H     1    ESP        -0.0032
     13 H           2.1212    0.4179    2.3753 H     1    ESP        -0.0050
     13 H           1.8871    0.0124    2.3753 H     1    ESP        -0.0060
     13 H           2.1212   -0.3930    2.3753 H     1    ESP        -0.0050
     13 H           2.5894   -0.3930    2.3753 H     1    ESP        -0.0033
     13 H           3.2737    0.0124    2.2387 H     1    ESP        -0.0008
     13 H           3.1507    0.4717    2.2387 H     1    ESP        -0.0012
     13 H           2.8145    0.8078    2.2387 H     1    ESP        -0.0022
     13 H           1.4369    0.0124    2.2387 H     1    ESP        -0.0082
     13 H           2.8145   -0.7829    2.2387 H     1    ESP        -0.0022
     13 H           3.1507   -0.4468    2.2387 H     1    ESP        -0.0012
     13 H           3.6887    0.0124    2.0169 H     1    ESP         0.0011
     13 H           3.6083    0.4685    2.0169 H     1    ESP         0.0008
     13 H           3.3767    0.8695    2.0169 H     1    ESP         0.0001
     13 H           3.0220    1.1672    2.0169 H     1    ESP        -0.0009
     13 H           1.0219    0.0124    2.0169 H     1    ESP        -0.0112
     13 H           3.0220   -1.1423    2.0169 H     1    ESP        -0.0009
     13 H           3.3767   -0.8446    2.0169 H     1    ESP         0.0001
     13 H           3.6083   -0.4436    2.0169 H     1    ESP         0.0008
     13 H           3.8053    0.8942    1.7184 H     1    ESP         0.0022
     13 H           3.5136    1.2527    1.7184 H     1    ESP         0.0014
     13 H           3.5136   -1.2278    1.7184 H     1    ESP         0.0014
     13 H           3.8053   -0.8693    1.7184 H     1    ESP         0.0022
     13 H           3.8390   -1.6353    0.9398 H     1    ESP         0.0048
     13 H           3.8390    1.6602   -0.8970 H     1    ESP         0.0047
     13 H           3.8390   -1.6353   -0.8970 H     1    ESP         0.0047
     13 H           3.8053    0.8942   -1.6757 H     1    ESP         0.0020
     13 H           3.5136    1.2527   -1.6757 H     1    ESP         0.0013
     13 H           3.5136   -1.2278   -1.6757 H     1    ESP         0.0012
     13 H           3.8053   -0.8693   -1.6757 H     1    ESP         0.0020
     13 H           3.6887    0.0124   -1.9741 H     1    ESP         0.0009
     13 H           3.6083    0.4685   -1.9741 H     1    ESP         0.0006
     13 H           3.3767    0.8695   -1.9741 H     1    ESP        -0.0001
     13 H           3.0220    1.1672   -1.9741 H     1    ESP        -0.0010
     13 H           1.0219    0.0124   -1.9741 H     1    ESP        -0.0115
     13 H           3.0220   -1.1423   -1.9741 H     1    ESP        -0.0010
     13 H           3.3767   -0.8446   -1.9741 H     1    ESP        -0.0001
     13 H           3.6083   -0.4436   -1.9741 H     1    ESP         0.0006
     13 H           3.2737    0.0124   -2.1959 H     1    ESP        -0.0010
     13 H           3.1507    0.4717   -2.1959 H     1    ESP        -0.0013
     13 H           2.8145    0.8078   -2.1959 H     1    ESP        -0.0023
     13 H           1.4369    0.0124   -2.1959 H     1    ESP        -0.0084
     13 H           2.8145   -0.7829   -2.1959 H     1    ESP        -0.0023
     13 H           3.1507   -0.4468   -2.1959 H     1    ESP        -0.0013
     13 H           2.8235    0.0124   -2.3325 H     1    ESP        -0.0026
     13 H           2.5894    0.4179   -2.3325 H     1    ESP        -0.0034
     13 H           2.1212    0.4179   -2.3325 H     1    ESP        -0.0051
     13 H           1.8871    0.0124   -2.3325 H     1    ESP        -0.0062
     13 H           2.1212   -0.3930   -2.3325 H     1    ESP        -0.0052
     13 H           2.5894   -0.3930   -2.3325 H     1    ESP        -0.0034
     13 H           2.3553    0.0124   -2.3786 H     1    ESP        -0.0043
     13 H           1.6483    1.2164    2.4157 H     1    ESP        -0.0044
     13 H           2.1165    1.2164    2.3696 H     1    ESP        -0.0034
     13 H           1.8824    1.6219    2.3696 H     1    ESP        -0.0026
     13 H           1.4142    1.6219    2.3696 H     1    ESP        -0.0035
     13 H           1.1801    1.2164    2.3696 H     1    ESP        -0.0054
     13 H           1.4142    0.8110    2.3696 H     1    ESP        -0.0062
     13 H           1.8824    0.8110    2.3696 H     1    ESP        -0.0051
     13 H           2.5667    1.2164    2.2330 H     1    ESP        -0.0022
     13 H           2.4437    1.6757    2.2330 H     1    ESP        -0.0013
     13 H           2.1075    2.0118    2.2330 H     1    ESP        -0.0009
     13 H           1.6483    2.1349    2.2330 H     1    ESP        -0.0014
     13 H           1.1891    2.0118    2.2330 H     1    ESP        -0.0025
     13 H           1.1891    0.4211    2.2330 H     1    ESP        -0.0084
     13 H           2.9817    1.2164    2.0112 H     1    ESP        -0.0009
     13 H           2.9013    1.6725    2.0112 H     1    ESP         0.0000
     13 H           2.6697    2.0735    2.0112 H     1    ESP         0.0007
     13 H           2.3150    2.3712    2.0112 H     1    ESP         0.0009
     13 H           1.8798    2.5296    2.0112 H     1    ESP         0.0006
     13 H           1.4168    2.5296    2.0112 H     1    ESP        -0.0002
     13 H           0.9816    2.3712    2.0112 H     1    ESP        -0.0013
     13 H           0.9816    0.0617    2.0112 H     1    ESP        -0.0113
     13 H           3.2824    1.6743    1.7127 H     1    ESP         0.0015
     13 H           3.0983    2.0982    1.7127 H     1    ESP         0.0022
     13 H           1.5325    2.9095    1.7127 H     1    ESP         0.0019
     13 H           1.0800    2.8155    1.7127 H     1    ESP         0.0010
     13 H           3.5900    1.6766    1.3490 H     1    ESP         0.0031
     13 H           1.0760    3.1281    1.3490 H     1    ESP         0.0029
     13 H           3.8172    1.6774   -0.9028 H     1    ESP         0.0047
     13 H           3.5900    1.6766   -1.3177 H     1    ESP         0.0030
     13 H           1.0760    3.1281   -1.3177 H     1    ESP         0.0030
     13 H           3.2824    1.6743   -1.6814 H     1    ESP         0.0013
     13 H           3.0983    2.0982   -1.6814 H     1    ESP         0.0021
     13 H           1.5325    2.9095   -1.6814 H     1    ESP         0.0018
     13 H           1.0800    2.8155   -1.6814 H     1    ESP         0.0010
     13 H           2.9817    1.2164   -1.9799 H     1    ESP        -0.0010
     13 H           2.9013    1.6725   -1.9799 H     1    ESP        -0.0001
     13 H           2.6697    2.0735   -1.9799 H     1    ESP         0.0006
     13 H           2.3150    2.3712   -1.9799 H     1    ESP         0.0008
     13 H           1.8798    2.5296   -1.9799 H     1    ESP         0.0005
     13 H           1.4168    2.5296   -1.9799 H     1    ESP        -0.0002
     13 H           0.9816    2.3712   -1.9799 H     1    ESP        -0.0013
     13 H           0.9816    0.0617   -1.9799 H     1    ESP        -0.0115
     13 H           2.5667    1.2164   -2.2016 H     1    ESP        -0.0024
     13 H           2.4437    1.6757   -2.2016 H     1    ESP        -0.0014
     13 H           2.1075    2.0118   -2.2016 H     1    ESP        -0.0010
     13 H           1.6483    2.1349   -2.2016 H     1    ESP        -0.0015
     13 H           1.1891    2.0118   -2.2016 H     1    ESP        -0.0026
     13 H           1.1891    0.4211   -2.2016 H     1    ESP        -0.0086
     13 H           2.1165    1.2164   -2.3382 H     1    ESP        -0.0035
     13 H           1.8824    1.6219   -2.3382 H     1    ESP        -0.0027
     13 H           1.4142    1.6219   -2.3382 H     1    ESP        -0.0036
     13 H           1.1801    1.2164   -2.3382 H     1    ESP        -0.0055
     13 H           1.4142    0.8110   -2.3382 H     1    ESP        -0.0063
     13 H           1.8824    0.8110   -2.3382 H     1    ESP        -0.0052
     13 H           1.6483    1.2164   -2.3843 H     1    ESP        -0.0044
     13 H           0.2525    1.2177    2.4030 H     1    ESP        -0.0053
     13 H           0.7207    1.2177    2.3569 H     1    ESP        -0.0057
     13 H           0.4866    1.6232    2.3569 H     1    ESP        -0.0041
     13 H           0.0184    1.6232    2.3569 H     1    ESP        -0.0037
     13 H          -0.2157    1.2177    2.3569 H     1    ESP        -0.0050
     13 H           0.0184    0.8122    2.3569 H     1    ESP        -0.0067
     13 H           0.4866    0.8122    2.3569 H     1    ESP        -0.0070
     13 H           0.7117    2.0131    2.2203 H     1    ESP        -0.0028
     13 H           0.2525    2.1361    2.2203 H     1    ESP        -0.0020
     13 H          -0.2067    2.0131    2.2203 H     1    ESP        -0.0021
     13 H          -0.5429    1.6769    2.2203 H     1    ESP        -0.0031
     13 H          -0.6660    1.2177    2.2203 H     1    ESP        -0.0048
     13 H           0.7117    0.4223    2.2203 H     1    ESP        -0.0090
     13 H           0.9192    2.3724    1.9986 H     1    ESP        -0.0013
     13 H           0.4840    2.5308    1.9986 H     1    ESP        -0.0005
     13 H           0.0209    2.5308    1.9986 H     1    ESP        -0.0000
     13 H          -0.4142    2.3724    1.9986 H     1    ESP        -0.0001
     13 H          -0.7689    2.0747    1.9986 H     1    ESP        -0.0010
     13 H          -1.0005    1.6737    1.9986 H     1    ESP        -0.0027
     13 H           0.9192    0.0629    1.9986 H     1    ESP        -0.0115
     13 H           0.5978    2.8792    1.7001 H     1    ESP         0.0012
     13 H           0.9377    3.3265    0.9215 H     1    ESP         0.0048
     13 H           0.9377    3.3265   -0.9154 H     1    ESP         0.0047
     13 H           0.5978    2.8792   -1.6940 H     1    ESP         0.0012
     13 H           0.9192    2.3724   -1.9925 H     1    ESP        -0.0013
     13 H           0.4840    2.5308   -1.9925 H     1    ESP        -0.0005
     13 H           0.0209    2.5308   -1.9925 H     1    ESP         0.0000
     13 H          -0.4142    2.3724   -1.9925 H     1    ESP        -0.0001
     13 H          -0.7689    2.0747   -1.9925 H     1    ESP        -0.0010
     13 H          -1.0005    1.6737   -1.9925 H     1    ESP        -0.0026
     13 H           0.9192    0.0629   -1.9925 H     1    ESP        -0.0114
     13 H           0.7117    2.0131   -2.2143 H     1    ESP        -0.0028
     13 H           0.2525    2.1361   -2.2143 H     1    ESP        -0.0020
     13 H          -0.2067    2.0131   -2.2143 H     1    ESP        -0.0020
     13 H          -0.5429    1.6769   -2.2143 H     1    ESP        -0.0030
     13 H          -0.6660    1.2177   -2.2143 H     1    ESP        -0.0048
     13 H           0.7117    0.4223   -2.2143 H     1    ESP        -0.0089
     13 H           0.7207    1.2177   -2.3508 H     1    ESP        -0.0057
     13 H           0.4866    1.6232   -2.3508 H     1    ESP        -0.0041
     13 H           0.0184    1.6232   -2.3508 H     1    ESP        -0.0037
     13 H          -0.2157    1.2177   -2.3508 H     1    ESP        -0.0050
     13 H           0.0184    0.8122   -2.3508 H     1    ESP        -0.0067
     13 H           0.4866    0.8122   -2.3508 H     1    ESP        -0.0070
     13 H           0.2525    1.2177   -2.3970 H     1    ESP        -0.0053
     13 H          -0.4236   -0.0022    2.3964 H     1    ESP        -0.0069
     13 H           0.0446   -0.0022    2.3503 H     1    ESP        -0.0079
     13 H          -0.1895    0.4032    2.3503 H     1    ESP        -0.0073
     13 H          -0.6577    0.4032    2.3503 H     1    ESP        -0.0065
     13 H          -0.6577   -0.4077    2.3503 H     1    ESP        -0.0065
     13 H          -0.1895   -0.4077    2.3503 H     1    ESP        -0.0073
     13 H           0.4948   -0.0022    2.2137 H     1    ESP        -0.0094
     13 H           0.9097   -0.0022    1.9919 H     1    ESP        -0.0116
     13 H           0.9097   -0.0022   -1.9991 H     1    ESP        -0.0114
     13 H           0.4948   -0.0022   -2.2209 H     1    ESP        -0.0092
     13 H           0.0446   -0.0022   -2.3575 H     1    ESP        -0.0078
     13 H          -0.1895    0.4032   -2.3575 H     1    ESP        -0.0072
     13 H          -0.6577    0.4032   -2.3575 H     1    ESP        -0.0064
     13 H          -0.6577   -0.4077   -2.3575 H     1    ESP        -0.0064
     13 H          -0.1895   -0.4077   -2.3575 H     1    ESP        -0.0072
     13 H          -0.4236   -0.0022   -2.4036 H     1    ESP        -0.0068
     13 H          -2.1848   -0.0115    2.6999 H     1    ESP        -0.0024
     13 H          -1.7371   -0.0115    2.6628 H     1    ESP        -0.0033
     13 H          -1.9609    0.3762    2.6628 H     1    ESP        -0.0028
     13 H          -2.4086    0.3762    2.6628 H     1    ESP        -0.0020
     13 H          -2.6325   -0.0115    2.6628 H     1    ESP        -0.0017
     13 H          -2.4086   -0.3993    2.6628 H     1    ESP        -0.0020
     13 H          -1.9609   -0.3993    2.6628 H     1    ESP        -0.0028
     13 H          -1.3016   -0.0115    2.5525 H     1    ESP        -0.0044
     13 H          -1.4199    0.4300    2.5525 H     1    ESP        -0.0040
     13 H          -1.7432    0.7533    2.5525 H     1    ESP        -0.0031
     13 H          -2.1848    0.8716    2.5525 H     1    ESP        -0.0022
     13 H          -2.6264    0.7533    2.5525 H     1    ESP        -0.0016
     13 H          -2.9496    0.4300    2.5525 H     1    ESP        -0.0013
     13 H          -3.0679   -0.0115    2.5525 H     1    ESP        -0.0011
     13 H          -2.9496   -0.4531    2.5525 H     1    ESP        -0.0012
     13 H          -2.6264   -0.7764    2.5525 H     1    ESP        -0.0016
     13 H          -2.1848   -0.8947    2.5525 H     1    ESP        -0.0022
     13 H          -1.7432   -0.7764    2.5525 H     1    ESP        -0.0030
     13 H          -1.4199   -0.4531    2.5525 H     1    ESP        -0.0040
     13 H          -0.8902   -0.0115    2.3721 H     1    ESP        -0.0061
     13 H          -0.9683    0.4312    2.3721 H     1    ESP        -0.0056
     13 H          -1.1931    0.8206    2.3721 H     1    ESP        -0.0045
     13 H          -1.5375    1.1096    2.3721 H     1    ESP        -0.0032
     13 H          -1.9600    1.2634    2.3721 H     1    ESP        -0.0023
     13 H          -2.4096    1.2634    2.3721 H     1    ESP        -0.0017
     13 H          -2.8320    1.1096    2.3721 H     1    ESP        -0.0012
     13 H          -3.1765    0.8206    2.3721 H     1    ESP        -0.0008
     13 H          -3.4013    0.4312    2.3721 H     1    ESP        -0.0006
     13 H          -3.4793   -0.0115    2.3721 H     1    ESP        -0.0004
     13 H          -3.4013   -0.4543    2.3721 H     1    ESP        -0.0006
     13 H          -3.1765   -0.8437    2.3721 H     1    ESP        -0.0008
     13 H          -2.8320   -1.1327    2.3721 H     1    ESP        -0.0012
     13 H          -2.4096   -1.2865    2.3721 H     1    ESP        -0.0017
     13 H          -1.9600   -1.2865    2.3721 H     1    ESP        -0.0023
     13 H          -1.5375   -1.1327    2.3721 H     1    ESP        -0.0032
     13 H          -1.1931   -0.8437    2.3721 H     1    ESP        -0.0044
     13 H          -0.9683   -0.4543    2.3721 H     1    ESP        -0.0056
     13 H          -1.0444    1.2094    2.1263 H     1    ESP        -0.0044
     13 H          -1.4161    1.4718    2.1263 H     1    ESP        -0.0028
     13 H          -1.8449    1.6242    2.1263 H     1    ESP        -0.0019
     13 H          -2.2988    1.6552    2.1263 H     1    ESP        -0.0014
     13 H          -2.7442    1.5626    2.1263 H     1    ESP        -0.0011
     13 H          -3.1482    1.3533    2.1263 H     1    ESP        -0.0007
     13 H          -3.4807    1.0428    2.1263 H     1    ESP        -0.0003
     13 H          -3.7171    0.6540    2.1263 H     1    ESP         0.0001
     13 H          -3.8399    0.2159    2.1263 H     1    ESP         0.0003
     13 H          -3.8399   -0.2390    2.1263 H     1    ESP         0.0003
     13 H          -3.7171   -0.6771    2.1263 H     1    ESP         0.0001
     13 H          -3.4807   -1.0659    2.1263 H     1    ESP        -0.0003
     13 H          -3.1482   -1.3764    2.1263 H     1    ESP        -0.0007
     13 H          -2.7442   -1.5857    2.1263 H     1    ESP        -0.0011
     13 H          -2.2988   -1.6783    2.1263 H     1    ESP        -0.0014
     13 H          -1.8449   -1.6473    2.1263 H     1    ESP        -0.0019
     13 H          -1.4161   -1.4949    2.1263 H     1    ESP        -0.0028
     13 H          -1.0444   -1.2325    2.1263 H     1    ESP        -0.0043
     13 H          -1.3921    1.8260    1.8221 H     1    ESP        -0.0016
     13 H          -1.8373    1.9592    1.8221 H     1    ESP        -0.0011
     13 H          -2.3011    1.9862    1.8221 H     1    ESP        -0.0009
     13 H          -2.7587    1.9056    1.8221 H     1    ESP        -0.0007
     13 H          -3.1853    1.7215    1.8221 H     1    ESP        -0.0004
     13 H          -3.5580    1.4441    1.8221 H     1    ESP        -0.0000
     13 H          -3.8567    1.0881    1.8221 H     1    ESP         0.0005
     13 H          -4.0652    0.6729    1.8221 H     1    ESP         0.0010
     13 H          -4.1724    0.2208    1.8221 H     1    ESP         0.0013
     13 H          -4.1724   -0.2439    1.8221 H     1    ESP         0.0013
     13 H          -4.0652   -0.6960    1.8221 H     1    ESP         0.0010
     13 H          -3.8567   -1.1112    1.8221 H     1    ESP         0.0005
     13 H          -3.5580   -1.4671    1.8221 H     1    ESP        -0.0000
     13 H          -3.1853   -1.7446    1.8221 H     1    ESP        -0.0004
     13 H          -2.7587   -1.9286    1.8221 H     1    ESP        -0.0007
     13 H          -2.3011   -2.0093    1.8221 H     1    ESP        -0.0009
     13 H          -1.8373   -1.9823    1.8221 H     1    ESP        -0.0011
     13 H          -1.3921   -1.8491    1.8221 H     1    ESP        -0.0016
     13 H          -1.8399    2.2393    1.4676 H     1    ESP         0.0002
     13 H          -2.3001    2.2626    1.4676 H     1    ESP        -0.0002
     13 H          -2.7555    2.1929    1.4676 H     1    ESP        -0.0003
     13 H          -3.1876    2.0328    1.4676 H     1    ESP        -0.0002
     13 H          -3.5786    1.7891    1.4676 H     1    ESP         0.0002
     13 H          -3.9125    1.4717    1.4676 H     1    ESP         0.0007
     13 H          -4.1757    1.0935    1.4676 H     1    ESP         0.0014
     13 H          -4.3574    0.6701    1.4676 H     1    ESP         0.0022
     13 H          -4.4502    0.2188    1.4676 H     1    ESP         0.0027
     13 H          -4.4502   -0.2419    1.4676 H     1    ESP         0.0027
     13 H          -4.3574   -0.6932    1.4676 H     1    ESP         0.0022
     13 H          -4.1757   -1.1166    1.4676 H     1    ESP         0.0015
     13 H          -3.9125   -1.4948    1.4676 H     1    ESP         0.0007
     13 H          -3.5786   -1.8122    1.4676 H     1    ESP         0.0002
     13 H          -3.1876   -2.0559    1.4676 H     1    ESP        -0.0002
     13 H          -2.7555   -2.2159    1.4676 H     1    ESP        -0.0003
     13 H          -2.3001   -2.2857    1.4676 H     1    ESP        -0.0002
     13 H          -1.8399   -2.2624    1.4676 H     1    ESP         0.0001
     13 H          -1.9549    2.4687    1.0725 H     1    ESP         0.0014
     13 H          -2.4146    2.4687    1.0725 H     1    ESP         0.0004
     13 H          -2.8664    2.3843    1.0725 H     1    ESP         0.0001
     13 H          -3.2951    2.2182    1.0725 H     1    ESP         0.0001
     13 H          -3.6859    1.9762    1.0725 H     1    ESP         0.0005
     13 H          -4.0256    1.6666    1.0725 H     1    ESP         0.0011
     13 H          -4.3026    1.2997    1.0725 H     1    ESP         0.0020
     13 H          -4.5075    0.8883    1.0725 H     1    ESP         0.0032
     13 H          -4.6333    0.4462    1.0725 H     1    ESP         0.0043
     13 H          -4.6757   -0.0115    1.0725 H     1    ESP         0.0048
     13 H          -4.6333   -0.4692    1.0725 H     1    ESP         0.0043
     13 H          -4.5075   -0.9114    1.0725 H     1    ESP         0.0032
     13 H          -4.3026   -1.3228    1.0725 H     1    ESP         0.0021
     13 H          -4.0256   -1.6897    1.0725 H     1    ESP         0.0011
     13 H          -3.6859   -1.9993    1.0725 H     1    ESP         0.0005
     13 H          -3.2951   -2.2413    1.0725 H     1    ESP         0.0001
     13 H          -2.8664   -2.4074    1.0725 H     1    ESP         0.0000
     13 H          -2.4146   -2.4918    1.0725 H     1    ESP         0.0004
     13 H          -1.9549   -2.4918    1.0725 H     1    ESP         0.0013
     13 H          -2.1848    2.6252    0.6476 H     1    ESP         0.0017
     13 H          -2.6426    2.5852    0.6476 H     1    ESP         0.0006
     13 H          -3.0866    2.4662    0.6476 H     1    ESP         0.0003
     13 H          -3.5031    2.2720    0.6476 H     1    ESP         0.0004
     13 H          -3.8796    2.0083    0.6476 H     1    ESP         0.0009
     13 H          -4.2046    1.6833    0.6476 H     1    ESP         0.0017
     13 H          -4.4683    1.3068    0.6476 H     1    ESP         0.0030
     13 H          -4.6625    0.8903    0.6476 H     1    ESP         0.0047
     13 H          -4.7815    0.4463    0.6476 H     1    ESP         0.0064
     13 H          -4.8215   -0.0115    0.6476 H     1    ESP         0.0072
     13 H          -4.7815   -0.4694    0.6476 H     1    ESP         0.0065
     13 H          -4.6625   -0.9134    0.6476 H     1    ESP         0.0048
     13 H          -4.4683   -1.3299    0.6476 H     1    ESP         0.0031
     13 H          -4.2046   -1.7064    0.6476 H     1    ESP         0.0018
     13 H          -3.8796   -2.0314    0.6476 H     1    ESP         0.0009
     13 H          -3.5031   -2.2951    0.6476 H     1    ESP         0.0004
     13 H          -3.0866   -2.4893    0.6476 H     1    ESP         0.0003
     13 H          -2.6426   -2.6083    0.6476 H     1    ESP         0.0006
     13 H          -2.1848   -2.6483    0.6476 H     1    ESP         0.0016
     13 H          -2.5291    2.6772    0.2045 H     1    ESP         0.0011
     13 H          -2.9785    2.5803    0.2045 H     1    ESP         0.0005
     13 H          -3.4051    2.4089    0.2045 H     1    ESP         0.0004
     13 H          -3.7966    2.1679    0.2045 H     1    ESP         0.0008
     13 H          -4.1418    1.8641    0.2045 H     1    ESP         0.0016
     13 H          -4.4306    1.5064    0.2045 H     1    ESP         0.0028
     13 H          -4.6548    1.1050    0.2045 H     1    ESP         0.0046
     13 H          -4.8080    0.6715    0.2045 H     1    ESP         0.0070
     13 H          -4.8857    0.2183    0.2045 H     1    ESP         0.0089
     13 H          -4.8857   -0.2414    0.2045 H     1    ESP         0.0090
     13 H          -4.8080   -0.6946    0.2045 H     1    ESP         0.0071
     13 H          -4.6548   -1.1281    0.2045 H     1    ESP         0.0048
     13 H          -4.4306   -1.5295    0.2045 H     1    ESP         0.0029
     13 H          -4.1418   -1.8872    0.2045 H     1    ESP         0.0016
     13 H          -3.7966   -2.1910    0.2045 H     1    ESP         0.0008
     13 H          -3.4051   -2.4320    0.2045 H     1    ESP         0.0005
     13 H          -2.9785   -2.6034    0.2045 H     1    ESP         0.0005
     13 H          -2.5291   -2.7003    0.2045 H     1    ESP         0.0010
     13 H          -2.5291    2.6772   -0.2447 H     1    ESP         0.0011
     13 H          -2.9785    2.5803   -0.2447 H     1    ESP         0.0005
     13 H          -3.4051    2.4089   -0.2447 H     1    ESP         0.0004
     13 H          -3.7966    2.1679   -0.2447 H     1    ESP         0.0008
     13 H          -4.1418    1.8641   -0.2447 H     1    ESP         0.0016
     13 H          -4.4306    1.5064   -0.2447 H     1    ESP         0.0028
     13 H          -4.6548    1.1050   -0.2447 H     1    ESP         0.0047
     13 H          -4.8080    0.6715   -0.2447 H     1    ESP         0.0071
     13 H          -4.8857    0.2183   -0.2447 H     1    ESP         0.0091
     13 H          -4.8857   -0.2414   -0.2447 H     1    ESP         0.0091
     13 H          -4.8080   -0.6946   -0.2447 H     1    ESP         0.0072
     13 H          -4.6548   -1.1281   -0.2447 H     1    ESP         0.0048
     13 H          -4.4306   -1.5295   -0.2447 H     1    ESP         0.0029
     13 H          -4.1418   -1.8872   -0.2447 H     1    ESP         0.0016
     13 H          -3.7966   -2.1910   -0.2447 H     1    ESP         0.0009
     13 H          -3.4051   -2.4320   -0.2447 H     1    ESP         0.0005
     13 H          -2.9785   -2.6034   -0.2447 H     1    ESP         0.0005
     13 H          -2.5291   -2.7003   -0.2447 H     1    ESP         0.0010
     13 H          -2.1848    2.6252   -0.6878 H     1    ESP         0.0016
     13 H          -2.6426    2.5852   -0.6878 H     1    ESP         0.0006
     13 H          -3.0866    2.4662   -0.6878 H     1    ESP         0.0003
     13 H          -3.5031    2.2720   -0.6878 H     1    ESP         0.0004
     13 H          -3.8796    2.0083   -0.6878 H     1    ESP         0.0009
     13 H          -4.2046    1.6833   -0.6878 H     1    ESP         0.0018
     13 H          -4.4683    1.3068   -0.6878 H     1    ESP         0.0031
     13 H          -4.6625    0.8903   -0.6878 H     1    ESP         0.0048
     13 H          -4.7815    0.4463   -0.6878 H     1    ESP         0.0066
     13 H          -4.8215   -0.0115   -0.6878 H     1    ESP         0.0075
     13 H          -4.7815   -0.4694   -0.6878 H     1    ESP         0.0067
     13 H          -4.6625   -0.9134   -0.6878 H     1    ESP         0.0049
     13 H          -4.4683   -1.3299   -0.6878 H     1    ESP         0.0032
     13 H          -4.2046   -1.7064   -0.6878 H     1    ESP         0.0018
     13 H          -3.8796   -2.0314   -0.6878 H     1    ESP         0.0010
     13 H          -3.5031   -2.2951   -0.6878 H     1    ESP         0.0004
     13 H          -3.0866   -2.4893   -0.6878 H     1    ESP         0.0003
     13 H          -2.6426   -2.6083   -0.6878 H     1    ESP         0.0005
     13 H          -2.1848   -2.6483   -0.6878 H     1    ESP         0.0015
     13 H          -1.9549    2.4687   -1.1127 H     1    ESP         0.0013
     13 H          -2.4146    2.4687   -1.1127 H     1    ESP         0.0004
     13 H          -2.8664    2.3843   -1.1127 H     1    ESP         0.0001
     13 H          -3.2951    2.2182   -1.1127 H     1    ESP         0.0001
     13 H          -3.6859    1.9762   -1.1127 H     1    ESP         0.0005
     13 H          -4.0256    1.6666   -1.1127 H     1    ESP         0.0011
     13 H          -4.3026    1.2997   -1.1127 H     1    ESP         0.0021
     13 H          -4.5075    0.8883   -1.1127 H     1    ESP         0.0033
     13 H          -4.6333    0.4462   -1.1127 H     1    ESP         0.0045
     13 H          -4.6757   -0.0115   -1.1127 H     1    ESP         0.0050
     13 H          -4.6333   -0.4692   -1.1127 H     1    ESP         0.0045
     13 H          -4.5075   -0.9114   -1.1127 H     1    ESP         0.0034
     13 H          -4.3026   -1.3228   -1.1127 H     1    ESP         0.0022
     13 H          -4.0256   -1.6897   -1.1127 H     1    ESP         0.0012
     13 H          -3.6859   -1.9993   -1.1127 H     1    ESP         0.0005
     13 H          -3.2951   -2.2413   -1.1127 H     1    ESP         0.0001
     13 H          -2.8664   -2.4074   -1.1127 H     1    ESP         0.0001
     13 H          -2.4146   -2.4918   -1.1127 H     1    ESP         0.0003
     13 H          -1.9549   -2.4918   -1.1127 H     1    ESP         0.0012
     13 H          -1.8399    2.2393   -1.5078 H     1    ESP         0.0001
     13 H          -2.3001    2.2626   -1.5078 H     1    ESP        -0.0002
     13 H          -2.7555    2.1929   -1.5078 H     1    ESP        -0.0003
     13 H          -3.1876    2.0328   -1.5078 H     1    ESP        -0.0002
     13 H          -3.5786    1.7891   -1.5078 H     1    ESP         0.0002
     13 H          -3.9125    1.4717   -1.5078 H     1    ESP         0.0008
     13 H          -4.1757    1.0935   -1.5078 H     1    ESP         0.0015
     13 H          -4.3574    0.6701   -1.5078 H     1    ESP         0.0023
     13 H          -4.4502    0.2188   -1.5078 H     1    ESP         0.0029
     13 H          -4.4502   -0.2419   -1.5078 H     1    ESP         0.0029
     13 H          -4.3574   -0.6932   -1.5078 H     1    ESP         0.0024
     13 H          -4.1757   -1.1166   -1.5078 H     1    ESP         0.0016
     13 H          -3.9125   -1.4948   -1.5078 H     1    ESP         0.0008
     13 H          -3.5786   -1.8122   -1.5078 H     1    ESP         0.0002
     13 H          -3.1876   -2.0559   -1.5078 H     1    ESP        -0.0001
     13 H          -2.7555   -2.2159   -1.5078 H     1    ESP        -0.0003
     13 H          -2.3001   -2.2857   -1.5078 H     1    ESP        -0.0002
     13 H          -1.8399   -2.2624   -1.5078 H     1    ESP         0.0001
     13 H          -1.3921    1.8260   -1.8623 H     1    ESP        -0.0016
     13 H          -1.8373    1.9592   -1.8623 H     1    ESP        -0.0011
     13 H          -2.3011    1.9862   -1.8623 H     1    ESP        -0.0009
     13 H          -2.7587    1.9056   -1.8623 H     1    ESP        -0.0007
     13 H          -3.1853    1.7215   -1.8623 H     1    ESP        -0.0004
     13 H          -3.5580    1.4441   -1.8623 H     1    ESP         0.0000
     13 H          -3.8567    1.0881   -1.8623 H     1    ESP         0.0005
     13 H          -4.0652    0.6729   -1.8623 H     1    ESP         0.0011
     13 H          -4.1724    0.2208   -1.8623 H     1    ESP         0.0014
     13 H          -4.1724   -0.2439   -1.8623 H     1    ESP         0.0015
     13 H          -4.0652   -0.6960   -1.8623 H     1    ESP         0.0011
     13 H          -3.8567   -1.1112   -1.8623 H     1    ESP         0.0006
     13 H          -3.5580   -1.4671   -1.8623 H     1    ESP         0.0000
     13 H          -3.1853   -1.7446   -1.8623 H     1    ESP        -0.0004
     13 H          -2.7587   -1.9286   -1.8623 H     1    ESP        -0.0007
     13 H          -2.3011   -2.0093   -1.8623 H     1    ESP        -0.0009
     13 H          -1.8373   -1.9823   -1.8623 H     1    ESP        -0.0011
     13 H          -1.3921   -1.8491   -1.8623 H     1    ESP        -0.0016
     13 H          -1.0444    1.2094   -2.1666 H     1    ESP        -0.0043
     13 H          -1.4161    1.4718   -2.1666 H     1    ESP        -0.0028
     13 H          -1.8449    1.6242   -2.1666 H     1    ESP        -0.0019
     13 H          -2.2988    1.6552   -2.1666 H     1    ESP        -0.0014
     13 H          -2.7442    1.5626   -2.1666 H     1    ESP        -0.0010
     13 H          -3.1482    1.3533   -2.1666 H     1    ESP        -0.0007
     13 H          -3.4807    1.0428   -2.1666 H     1    ESP        -0.0002
     13 H          -3.7171    0.6540   -2.1666 H     1    ESP         0.0001
     13 H          -3.8399    0.2159   -2.1666 H     1    ESP         0.0004
     13 H          -3.8399   -0.2390   -2.1666 H     1    ESP         0.0004
     13 H          -3.7171   -0.6771   -2.1666 H     1    ESP         0.0002
     13 H          -3.4807   -1.0659   -2.1666 H     1    ESP        -0.0002
     13 H          -3.1482   -1.3764   -2.1666 H     1    ESP        -0.0006
     13 H          -2.7442   -1.5857   -2.1666 H     1    ESP        -0.0010
     13 H          -2.2988   -1.6783   -2.1666 H     1    ESP        -0.0014
     13 H          -1.8449   -1.6473   -2.1666 H     1    ESP        -0.0019
     13 H          -1.4161   -1.4949   -2.1666 H     1    ESP        -0.0027
     13 H          -1.0444   -1.2325   -2.1666 H     1    ESP        -0.0042
     13 H          -0.8902   -0.0115   -2.4123 H     1    ESP        -0.0059
     13 H          -0.9683    0.4312   -2.4123 H     1    ESP        -0.0054
     13 H          -1.1931    0.8206   -2.4123 H     1    ESP        -0.0043
     13 H          -1.5375    1.1096   -2.4123 H     1    ESP        -0.0031
     13 H          -1.9600    1.2634   -2.4123 H     1    ESP        -0.0022
     13 H          -2.4096    1.2634   -2.4123 H     1    ESP        -0.0016
     13 H          -2.8320    1.1096   -2.4123 H     1    ESP        -0.0012
     13 H          -3.1765    0.8206   -2.4123 H     1    ESP        -0.0008
     13 H          -3.4013    0.4312   -2.4123 H     1    ESP        -0.0005
     13 H          -3.4793   -0.0115   -2.4123 H     1    ESP        -0.0004
     13 H          -3.4013   -0.4543   -2.4123 H     1    ESP        -0.0005
     13 H          -3.1765   -0.8437   -2.4123 H     1    ESP        -0.0008
     13 H          -2.8320   -1.1327   -2.4123 H     1    ESP        -0.0012
     13 H          -2.4096   -1.2865   -2.4123 H     1    ESP        -0.0016
     13 H          -1.9600   -1.2865   -2.4123 H     1    ESP        -0.0022
     13 H          -1.5375   -1.1327   -2.4123 H     1    ESP        -0.0031
     13 H          -1.1931   -0.8437   -2.4123 H     1    ESP        -0.0043
     13 H          -0.9683   -0.4543   -2.4123 H     1    ESP        -0.0054
     13 H          -1.3016   -0.0115   -2.5927 H     1    ESP        -0.0043
     13 H          -1.4199    0.4300   -2.5927 H     1    ESP        -0.0039
     13 H          -1.7432    0.7533   -2.5927 H     1    ESP        -0.0030
     13 H          -2.1848    0.8716   -2.5927 H     1    ESP        -0.0022
     13 H          -2.6264    0.7533   -2.5927 H     1    ESP        -0.0016
     13 H          -2.9496    0.4300   -2.5927 H     1    ESP        -0.0012
     13 H          -3.0679   -0.0115   -2.5927 H     1    ESP        -0.0010
     13 H          -2.9496   -0.4531   -2.5927 H     1    ESP        -0.0012
     13 H          -2.6264   -0.7764   -2.5927 H     1    ESP        -0.0016
     13 H          -2.1848   -0.8947   -2.5927 H     1    ESP        -0.0021
     13 H          -1.7432   -0.7764   -2.5927 H     1    ESP        -0.0029
     13 H          -1.4199   -0.4531   -2.5927 H     1    ESP        -0.0038
     13 H          -1.7371   -0.0115   -2.7030 H     1    ESP        -0.0032
     13 H          -1.9609    0.3762   -2.7030 H     1    ESP        -0.0027
     13 H          -2.4086    0.3762   -2.7030 H     1    ESP        -0.0020
     13 H          -2.6325   -0.0115   -2.7030 H     1    ESP        -0.0017
     13 H          -2.4086   -0.3993   -2.7030 H     1    ESP        -0.0020
     13 H          -1.9609   -0.3993   -2.7030 H     1    ESP        -0.0027
     13 H          -2.1848   -0.0115   -2.7401 H     1    ESP        -0.0023
     13 H          -0.5138   -2.5483    1.8607 H     1    ESP         0.0009
     13 H          -1.1763   -2.1503    1.6966 H     1    ESP         0.0000
     13 H          -1.0568   -2.5965    1.6966 H     1    ESP         0.0015
     13 H          -0.7302   -2.9231    1.6966 H     1    ESP         0.0022
     13 H          -0.2840   -3.0426    1.6966 H     1    ESP         0.0024
     13 H           0.1621   -2.9231    1.6966 H     1    ESP         0.0019
     13 H          -1.5355   -2.3843    1.4336 H     1    ESP         0.0012
     13 H          -1.3665   -2.8206    1.4336 H     1    ESP         0.0023
     13 H          -1.0513   -3.1664    1.4336 H     1    ESP         0.0029
     13 H          -0.6325   -3.3749    1.4336 H     1    ESP         0.0032
     13 H          -0.1666   -3.4181    1.4336 H     1    ESP         0.0033
     13 H           0.2835   -3.2900    1.4336 H     1    ESP         0.0031
     13 H          -1.7077   -2.8359    1.0872 H     1    ESP         0.0025
     13 H          -1.4423   -3.2251    1.0872 H     1    ESP         0.0032
     13 H          -1.0741   -3.5188    1.0872 H     1    ESP         0.0036
     13 H          -0.6356   -3.6908    1.0872 H     1    ESP         0.0038
     13 H          -0.1659   -3.7260    1.0872 H     1    ESP         0.0039
     13 H           0.2933   -3.6212    1.0872 H     1    ESP         0.0040
     13 H           0.7012   -3.3857    1.0872 H     1    ESP         0.0040
     13 H          -1.8387   -3.0479    0.6773 H     1    ESP         0.0030
     13 H          -1.5535   -3.4197    0.6773 H     1    ESP         0.0036
     13 H          -1.1816   -3.7050    0.6773 H     1    ESP         0.0040
     13 H          -0.7487   -3.8844    0.6773 H     1    ESP         0.0042
     13 H          -0.2840   -3.9456    0.6773 H     1    ESP         0.0043
     13 H           0.1806   -3.8844    0.6773 H     1    ESP         0.0045
     13 H           0.6136   -3.7050    0.6773 H     1    ESP         0.0047
     13 H          -2.0562   -2.8520    0.2279 H     1    ESP         0.0027
     13 H          -1.8260   -3.2706    0.2279 H     1    ESP         0.0035
     13 H          -1.4990   -3.6189    0.2279 H     1    ESP         0.0039
     13 H          -1.0956   -3.8749    0.2279 H     1    ESP         0.0042
     13 H          -0.6412   -4.0226    0.2279 H     1    ESP         0.0044
     13 H          -0.1644   -4.0526    0.2279 H     1    ESP         0.0045
     13 H           0.3050   -3.9630    0.2279 H     1    ESP         0.0048
     13 H           0.7373   -3.7596    0.2279 H     1    ESP         0.0053
     13 H          -2.0562   -2.8520   -0.2349 H     1    ESP         0.0028
     13 H          -1.8260   -3.2706   -0.2349 H     1    ESP         0.0035
     13 H          -1.4990   -3.6189   -0.2349 H     1    ESP         0.0039
     13 H          -1.0956   -3.8749   -0.2349 H     1    ESP         0.0042
     13 H          -0.6412   -4.0226   -0.2349 H     1    ESP         0.0044
     13 H          -0.1644   -4.0526   -0.2349 H     1    ESP         0.0045
     13 H           0.3050   -3.9630   -0.2349 H     1    ESP         0.0047
     13 H           0.7373   -3.7596   -0.2349 H     1    ESP         0.0053
     13 H          -1.8387   -3.0479   -0.6843 H     1    ESP         0.0031
     13 H          -1.5535   -3.4197   -0.6843 H     1    ESP         0.0036
     13 H          -1.1816   -3.7050   -0.6843 H     1    ESP         0.0040
     13 H          -0.7487   -3.8844   -0.6843 H     1    ESP         0.0042
     13 H          -0.2840   -3.9456   -0.6843 H     1    ESP         0.0043
     13 H           0.1806   -3.8844   -0.6843 H     1    ESP         0.0045
     13 H           0.6136   -3.7050   -0.6843 H     1    ESP         0.0047
     13 H          -1.7077   -2.8359   -1.0942 H     1    ESP         0.0025
     13 H          -1.4423   -3.2251   -1.0942 H     1    ESP         0.0032
     13 H          -1.0741   -3.5188   -1.0942 H     1    ESP         0.0036
     13 H          -0.6356   -3.6908   -1.0942 H     1    ESP         0.0039
     13 H          -0.1659   -3.7260   -1.0942 H     1    ESP         0.0039
     13 H           0.2933   -3.6212   -1.0942 H     1    ESP         0.0040
     13 H           0.7012   -3.3857   -1.0942 H     1    ESP         0.0040
     13 H          -1.5355   -2.3843   -1.4406 H     1    ESP         0.0012
     13 H          -1.3665   -2.8206   -1.4406 H     1    ESP         0.0023
     13 H          -1.0513   -3.1664   -1.4406 H     1    ESP         0.0030
     13 H          -0.6325   -3.3749   -1.4406 H     1    ESP         0.0033
     13 H          -0.1666   -3.4181   -1.4406 H     1    ESP         0.0033
     13 H           0.2835   -3.2900   -1.4406 H     1    ESP         0.0031
     13 H          -1.1763   -2.1503   -1.7036 H     1    ESP         0.0001
     13 H          -1.0568   -2.5965   -1.7036 H     1    ESP         0.0015
     13 H          -0.7302   -2.9231   -1.7036 H     1    ESP         0.0022
     13 H          -0.2840   -3.0426   -1.7036 H     1    ESP         0.0024
     13 H           0.1621   -2.9231   -1.7036 H     1    ESP         0.0019
     13 H          -0.5138   -2.5483   -1.8677 H     1    ESP         0.0010
     13 H           2.4335   -2.5382    1.8831 H     1    ESP         0.0020
     13 H           3.0960   -2.1402    1.7189 H     1    ESP         0.0023
     13 H           1.7576   -2.9130    1.7189 H     1    ESP         0.0022
     13 H           2.2037   -3.0325    1.7189 H     1    ESP         0.0029
     13 H           2.6499   -2.9130    1.7189 H     1    ESP         0.0031
     13 H           2.9765   -2.5864    1.7189 H     1    ESP         0.0029
     13 H           3.4769   -2.1402    1.4560 H     1    ESP         0.0033
     13 H           1.4365   -3.1563    1.4560 H     1    ESP         0.0029
     13 H           1.8553   -3.3648    1.4560 H     1    ESP         0.0034
     13 H           2.3212   -3.4080    1.4560 H     1    ESP         0.0037
     13 H           2.7713   -3.2800    1.4560 H     1    ESP         0.0038
     13 H           3.1446   -2.9980    1.4560 H     1    ESP         0.0038
     13 H           3.3910   -2.6002    1.4560 H     1    ESP         0.0036
     13 H           3.7839   -2.1402    1.1095 H     1    ESP         0.0041
     13 H           1.4137   -3.5087    1.1095 H     1    ESP         0.0040
     13 H           1.8521   -3.6808    1.1095 H     1    ESP         0.0041
     13 H           2.3218   -3.7160    1.1095 H     1    ESP         0.0042
     13 H           2.7810   -3.6111    1.1095 H     1    ESP         0.0042
     13 H           3.1889   -3.3756    1.1095 H     1    ESP         0.0043
     13 H           3.5093   -3.0304    1.1095 H     1    ESP         0.0042
     13 H           3.7137   -2.6060    1.1095 H     1    ESP         0.0042
     13 H           3.9990   -2.1402    0.6997 H     1    ESP         0.0048
     13 H           1.3061   -3.6950    0.6997 H     1    ESP         0.0047
     13 H           1.7391   -3.8743    0.6997 H     1    ESP         0.0045
     13 H           2.2037   -3.9355    0.6997 H     1    ESP         0.0045
     13 H           2.6684   -3.8743    0.6997 H     1    ESP         0.0045
     13 H           3.1014   -3.6950    0.6997 H     1    ESP         0.0045
     13 H           3.4732   -3.4097    0.6997 H     1    ESP         0.0045
     13 H           3.7585   -3.0379    0.6997 H     1    ESP         0.0045
     13 H           3.9378   -2.6049    0.6997 H     1    ESP         0.0046
     13 H           4.1097   -2.1402    0.2503 H     1    ESP         0.0052
     13 H           0.9888   -3.6088    0.2503 H     1    ESP         0.0058
     13 H           1.3922   -3.8648    0.2503 H     1    ESP         0.0049
     13 H           1.8466   -4.0125    0.2503 H     1    ESP         0.0047
     13 H           2.3234   -4.0425    0.2503 H     1    ESP         0.0046
     13 H           2.7927   -3.9530    0.2503 H     1    ESP         0.0046
     13 H           3.2250   -3.7495    0.2503 H     1    ESP         0.0046
     13 H           3.5932   -3.4450    0.2503 H     1    ESP         0.0047
     13 H           3.8740   -3.0585    0.2503 H     1    ESP         0.0047
     13 H           4.0499   -2.6142    0.2503 H     1    ESP         0.0048
     13 H           4.1097   -2.1402   -0.2126 H     1    ESP         0.0051
     13 H           0.9888   -3.6088   -0.2126 H     1    ESP         0.0059
     13 H           1.3922   -3.8648   -0.2126 H     1    ESP         0.0049
     13 H           1.8466   -4.0125   -0.2126 H     1    ESP         0.0047
     13 H           2.3234   -4.0425   -0.2126 H     1    ESP         0.0046
     13 H           2.7927   -3.9530   -0.2126 H     1    ESP         0.0046
     13 H           3.2250   -3.7495   -0.2126 H     1    ESP         0.0046
     13 H           3.5932   -3.4450   -0.2126 H     1    ESP         0.0047
     13 H           3.8740   -3.0585   -0.2126 H     1    ESP         0.0047
     13 H           4.0499   -2.6142   -0.2126 H     1    ESP         0.0048
     13 H           3.9990   -2.1402   -0.6620 H     1    ESP         0.0048
     13 H           1.3061   -3.6950   -0.6620 H     1    ESP         0.0047
     13 H           1.7391   -3.8743   -0.6620 H     1    ESP         0.0045
     13 H           2.2037   -3.9355   -0.6620 H     1    ESP         0.0045
     13 H           2.6684   -3.8743   -0.6620 H     1    ESP         0.0045
     13 H           3.1014   -3.6950   -0.6620 H     1    ESP         0.0045
     13 H           3.4732   -3.4097   -0.6620 H     1    ESP         0.0045
     13 H           3.7585   -3.0379   -0.6620 H     1    ESP         0.0045
     13 H           3.9378   -2.6049   -0.6620 H     1    ESP         0.0046
     13 H           3.7839   -2.1402   -1.0718 H     1    ESP         0.0041
     13 H           1.4137   -3.5087   -1.0718 H     1    ESP         0.0040
     13 H           1.8521   -3.6808   -1.0718 H     1    ESP         0.0041
     13 H           2.3218   -3.7160   -1.0718 H     1    ESP         0.0042
     13 H           2.7810   -3.6111   -1.0718 H     1    ESP         0.0042
     13 H           3.1889   -3.3756   -1.0718 H     1    ESP         0.0042
     13 H           3.5093   -3.0304   -1.0718 H     1    ESP         0.0042
     13 H           3.7137   -2.6060   -1.0718 H     1    ESP         0.0041
     13 H           3.4769   -2.1402   -1.4183 H     1    ESP         0.0032
     13 H           1.4365   -3.1563   -1.4183 H     1    ESP         0.0030
     13 H           1.8553   -3.3648   -1.4183 H     1    ESP         0.0034
     13 H           2.3212   -3.4080   -1.4183 H     1    ESP         0.0037
     13 H           2.7713   -3.2800   -1.4183 H     1    ESP         0.0038
     13 H           3.1446   -2.9980   -1.4183 H     1    ESP         0.0037
     13 H           3.3910   -2.6002   -1.4183 H     1    ESP         0.0036
     13 H           3.0960   -2.1402   -1.6812 H     1    ESP         0.0023
     13 H           1.7576   -2.9130   -1.6812 H     1    ESP         0.0022
     13 H           2.2037   -3.0325   -1.6812 H     1    ESP         0.0028
     13 H           2.6499   -2.9130   -1.6812 H     1    ESP         0.0030
     13 H           2.9765   -2.5864   -1.6812 H     1    ESP         0.0029
     13 H           2.4335   -2.5382   -1.8453 H     1    ESP         0.0019
     13 H           3.9008    0.0182    1.8952 H     1    ESP         0.0021
     13 H           4.3336    0.0182    1.7310 H     1    ESP         0.0032
     13 H           4.2141    0.4643    1.7310 H     1    ESP         0.0030
     13 H           3.8875    0.7909    1.7310 H     1    ESP         0.0024
     13 H           3.8875   -0.7545    1.7310 H     1    ESP         0.0024
     13 H           4.2141   -0.4279    1.7310 H     1    ESP         0.0030
     13 H           4.7145    0.0182    1.4681 H     1    ESP         0.0039
     13 H           4.6286    0.4781    1.4681 H     1    ESP         0.0038
     13 H           4.3822    0.8759    1.4681 H     1    ESP         0.0036
     13 H           4.0089    1.1579    1.4681 H     1    ESP         0.0032
     13 H           4.0089   -1.1215    1.4681 H     1    ESP         0.0032
     13 H           4.3822   -0.8395    1.4681 H     1    ESP         0.0036
     13 H           4.6286   -0.4417    1.4681 H     1    ESP         0.0038
     13 H           5.0215    0.0182    1.1217 H     1    ESP         0.0043
     13 H           4.9513    0.4840    1.1217 H     1    ESP         0.0043
     13 H           4.7469    0.9083    1.1217 H     1    ESP         0.0042
     13 H           4.4265    1.2536    1.1217 H     1    ESP         0.0042
     13 H           4.0186    1.4891    1.1217 H     1    ESP         0.0041
     13 H           4.0186   -1.4527    1.1217 H     1    ESP         0.0041
     13 H           4.4265   -1.2172    1.1217 H     1    ESP         0.0042
     13 H           4.7469   -0.8719    1.1217 H     1    ESP         0.0042
     13 H           4.9513   -0.4476    1.1217 H     1    ESP         0.0043
     13 H           5.2366    0.0182    0.7118 H     1    ESP         0.0046
     13 H           5.1754    0.4828    0.7118 H     1    ESP         0.0046
     13 H           4.9961    0.9158    0.7118 H     1    ESP         0.0046
     13 H           4.7108    1.2876    0.7118 H     1    ESP         0.0046
     13 H           4.3390    1.5729    0.7118 H     1    ESP         0.0048
     13 H           4.3390   -1.5365    0.7118 H     1    ESP         0.0048
     13 H           4.7108   -1.2512    0.7118 H     1    ESP         0.0046
     13 H           4.9961   -0.8794    0.7118 H     1    ESP         0.0046
     13 H           5.1754   -0.4464    0.7118 H     1    ESP         0.0046
     13 H           5.3473    0.0182    0.2624 H     1    ESP         0.0047
     13 H           5.2875    0.4922    0.2624 H     1    ESP         0.0047
     13 H           5.1116    0.9364    0.2624 H     1    ESP         0.0047
     13 H           4.8308    1.3229    0.2624 H     1    ESP         0.0048
     13 H           4.4626    1.6275    0.2624 H     1    ESP         0.0051
     13 H           4.4626   -1.5911    0.2624 H     1    ESP         0.0051
     13 H           4.8308   -1.2865    0.2624 H     1    ESP         0.0048
     13 H           5.1116   -0.9000    0.2624 H     1    ESP         0.0047
     13 H           5.2875   -0.4558    0.2624 H     1    ESP         0.0047
     13 H           5.3473    0.0182   -0.2005 H     1    ESP         0.0047
     13 H           5.2875    0.4922   -0.2005 H     1    ESP         0.0047
     13 H           5.1116    0.9364   -0.2005 H     1    ESP         0.0047
     13 H           4.8308    1.3229   -0.2005 H     1    ESP         0.0048
     13 H           4.4626    1.6275   -0.2005 H     1    ESP         0.0051
     13 H           4.4626   -1.5911   -0.2005 H     1    ESP         0.0051
     13 H           4.8308   -1.2865   -0.2005 H     1    ESP         0.0048
     13 H           5.1116   -0.9000   -0.2005 H     1    ESP         0.0047
     13 H           5.2875   -0.4558   -0.2005 H     1    ESP         0.0047
     13 H           5.2366    0.0182   -0.6499 H     1    ESP         0.0046
     13 H           5.1754    0.4828   -0.6499 H     1    ESP         0.0046
     13 H           4.9961    0.9158   -0.6499 H     1    ESP         0.0045
     13 H           4.7108    1.2876   -0.6499 H     1    ESP         0.0046
     13 H           4.3390    1.5729   -0.6499 H     1    ESP         0.0048
     13 H           4.3390   -1.5365   -0.6499 H     1    ESP         0.0048
     13 H           4.7108   -1.2512   -0.6499 H     1    ESP         0.0046
     13 H           4.9961   -0.8794   -0.6499 H     1    ESP         0.0045
     13 H           5.1754   -0.4464   -0.6499 H     1    ESP         0.0046
     13 H           5.0215    0.0182   -1.0597 H     1    ESP         0.0043
     13 H           4.9513    0.4840   -1.0597 H     1    ESP         0.0043
     13 H           4.7469    0.9083   -1.0597 H     1    ESP         0.0042
     13 H           4.4265    1.2536   -1.0597 H     1    ESP         0.0041
     13 H           4.0186    1.4891   -1.0597 H     1    ESP         0.0041
     13 H           4.0186   -1.4527   -1.0597 H     1    ESP         0.0041
     13 H           4.4265   -1.2172   -1.0597 H     1    ESP         0.0041
     13 H           4.7469   -0.8719   -1.0597 H     1    ESP         0.0042
     13 H           4.9513   -0.4476   -1.0597 H     1    ESP         0.0043
     13 H           4.7145    0.0182   -1.4062 H     1    ESP         0.0038
     13 H           4.6286    0.4781   -1.4062 H     1    ESP         0.0038
     13 H           4.3822    0.8759   -1.4062 H     1    ESP         0.0036
     13 H           4.0089    1.1579   -1.4062 H     1    ESP         0.0032
     13 H           4.0089   -1.1215   -1.4062 H     1    ESP         0.0032
     13 H           4.3822   -0.8395   -1.4062 H     1    ESP         0.0036
     13 H           4.6286   -0.4417   -1.4062 H     1    ESP         0.0038
     13 H           4.3336    0.0182   -1.6691 H     1    ESP         0.0031
     13 H           4.2141    0.4643   -1.6691 H     1    ESP         0.0029
     13 H           3.8875    0.7909   -1.6691 H     1    ESP         0.0023
     13 H           3.8875   -0.7545   -1.6691 H     1    ESP         0.0023
     13 H           4.2141   -0.4279   -1.6691 H     1    ESP         0.0029
     13 H           3.9008    0.0182   -1.8332 H     1    ESP         0.0020
     13 H           2.4107    2.5613    1.8850 H     1    ESP         0.0020
     13 H           3.0732    2.1634    1.7208 H     1    ESP         0.0023
     13 H           2.9537    2.6096    1.7208 H     1    ESP         0.0029
     13 H           2.6271    2.9361    1.7208 H     1    ESP         0.0031
     13 H           2.1810    3.0557    1.7208 H     1    ESP         0.0029
     13 H           1.7348    2.9361    1.7208 H     1    ESP         0.0022
     13 H           3.4542    2.1634    1.4579 H     1    ESP         0.0033
     13 H           3.3682    2.6233    1.4579 H     1    ESP         0.0036
     13 H           3.1219    3.0212    1.4579 H     1    ESP         0.0038
     13 H           2.7485    3.3031    1.4579 H     1    ESP         0.0038
     13 H           2.2985    3.4312    1.4579 H     1    ESP         0.0037
     13 H           1.8326    3.3880    1.4579 H     1    ESP         0.0034
     13 H           1.4137    3.1794    1.4579 H     1    ESP         0.0030
     13 H           3.7611    2.1634    1.1114 H     1    ESP         0.0041
     13 H           3.6909    2.6292    1.1114 H     1    ESP         0.0042
     13 H           3.4865    3.0535    1.1114 H     1    ESP         0.0042
     13 H           3.1662    3.3988    1.1114 H     1    ESP         0.0043
     13 H           2.7583    3.6343    1.1114 H     1    ESP         0.0042
     13 H           2.2991    3.7391    1.1114 H     1    ESP         0.0042
     13 H           1.8294    3.7039    1.1114 H     1    ESP         0.0041
     13 H           1.3909    3.5318    1.1114 H     1    ESP         0.0040
     13 H           3.9762    2.1634    0.7016 H     1    ESP         0.0048
     13 H           3.9150    2.6281    0.7016 H     1    ESP         0.0046
     13 H           3.7357    3.0610    0.7016 H     1    ESP         0.0045
     13 H           3.4504    3.4328    0.7016 H     1    ESP         0.0045
     13 H           3.0786    3.7181    0.7016 H     1    ESP         0.0045
     13 H           2.6456    3.8975    0.7016 H     1    ESP         0.0045
     13 H           2.1810    3.9586    0.7016 H     1    ESP         0.0045
     13 H           1.7163    3.8975    0.7016 H     1    ESP         0.0045
     13 H           1.2834    3.7181    0.7016 H     1    ESP         0.0047
     13 H           4.0870    2.1634    0.2522 H     1    ESP         0.0052
     13 H           4.0271    2.6374    0.2522 H     1    ESP         0.0048
     13 H           3.8512    3.0816    0.2522 H     1    ESP         0.0047
     13 H           3.5704    3.4682    0.2522 H     1    ESP         0.0047
     13 H           3.2023    3.7727    0.2522 H     1    ESP         0.0046
     13 H           2.7700    3.9761    0.2522 H     1    ESP         0.0046
     13 H           2.3007    4.0657    0.2522 H     1    ESP         0.0046
     13 H           1.8238    4.0357    0.2522 H     1    ESP         0.0047
     13 H           1.3694    3.8880    0.2522 H     1    ESP         0.0049
     13 H           0.9660    3.6320    0.2522 H     1    ESP         0.0058
     13 H           4.0870    2.1634   -0.2107 H     1    ESP         0.0052
     13 H           4.0271    2.6374   -0.2107 H     1    ESP         0.0048
     13 H           3.8512    3.0816   -0.2107 H     1    ESP         0.0047
     13 H           3.5704    3.4682   -0.2107 H     1    ESP         0.0047
     13 H           3.2023    3.7727   -0.2107 H     1    ESP         0.0046
     13 H           2.7700    3.9761   -0.2107 H     1    ESP         0.0046
     13 H           2.3007    4.0657   -0.2107 H     1    ESP         0.0046
     13 H           1.8238    4.0357   -0.2107 H     1    ESP         0.0047
     13 H           1.3694    3.8880   -0.2107 H     1    ESP         0.0049
     13 H           0.9660    3.6320   -0.2107 H     1    ESP         0.0058
     13 H           3.9762    2.1634   -0.6601 H     1    ESP         0.0048
     13 H           3.9150    2.6281   -0.6601 H     1    ESP         0.0046
     13 H           3.7357    3.0610   -0.6601 H     1    ESP         0.0045
     13 H           3.4504    3.4328   -0.6601 H     1    ESP         0.0045
     13 H           3.0786    3.7181   -0.6601 H     1    ESP         0.0045
     13 H           2.6456    3.8975   -0.6601 H     1    ESP         0.0045
     13 H           2.1810    3.9586   -0.6601 H     1    ESP         0.0045
     13 H           1.7163    3.8975   -0.6601 H     1    ESP         0.0045
     13 H           1.2834    3.7181   -0.6601 H     1    ESP         0.0047
     13 H           3.7611    2.1634   -1.0699 H     1    ESP         0.0041
     13 H           3.6909    2.6292   -1.0699 H     1    ESP         0.0041
     13 H           3.4865    3.0535   -1.0699 H     1    ESP         0.0042
     13 H           3.1662    3.3988   -1.0699 H     1    ESP         0.0042
     13 H           2.7583    3.6343   -1.0699 H     1    ESP         0.0042
     13 H           2.2991    3.7391   -1.0699 H     1    ESP         0.0042
     13 H           1.8294    3.7039   -1.0699 H     1    ESP         0.0041
     13 H           1.3909    3.5318   -1.0699 H     1    ESP         0.0040
     13 H           3.4542    2.1634   -1.4164 H     1    ESP         0.0032
     13 H           3.3682    2.6233   -1.4164 H     1    ESP         0.0036
     13 H           3.1219    3.0212   -1.4164 H     1    ESP         0.0037
     13 H           2.7485    3.3031   -1.4164 H     1    ESP         0.0038
     13 H           2.2985    3.4312   -1.4164 H     1    ESP         0.0037
     13 H           1.8326    3.3880   -1.4164 H     1    ESP         0.0034
     13 H           1.4137    3.1794   -1.4164 H     1    ESP         0.0030
     13 H           3.0732    2.1634   -1.6793 H     1    ESP         0.0023
     13 H           2.9537    2.6096   -1.6793 H     1    ESP         0.0029
     13 H           2.6271    2.9361   -1.6793 H     1    ESP         0.0030
     13 H           2.1810    3.0557   -1.6793 H     1    ESP         0.0028
     13 H           1.7348    2.9361   -1.6793 H     1    ESP         0.0022
     13 H           2.4107    2.5613   -1.8434 H     1    ESP         0.0019
     13 H          -0.5365    2.5451    1.8624 H     1    ESP         0.0010
     13 H           0.1394    2.9199    1.6983 H     1    ESP         0.0019
     13 H          -0.3068    3.0395    1.6983 H     1    ESP         0.0024
     13 H          -0.7529    2.9199    1.6983 H     1    ESP         0.0022
     13 H          -1.0795    2.5933    1.6983 H     1    ESP         0.0015
     13 H          -1.1990    2.1472    1.6983 H     1    ESP         0.0001
     13 H           0.2607    3.2869    1.4354 H     1    ESP         0.0031
     13 H          -0.1893    3.4150    1.4354 H     1    ESP         0.0033
     13 H          -0.6552    3.3718    1.4354 H     1    ESP         0.0032
     13 H          -1.0741    3.1632    1.4354 H     1    ESP         0.0030
     13 H          -1.3893    2.8174    1.4354 H     1    ESP         0.0023
     13 H          -1.5583    2.3811    1.4354 H     1    ESP         0.0012
     13 H           0.6784    3.3826    1.0889 H     1    ESP         0.0041
     13 H           0.2705    3.6181    1.0889 H     1    ESP         0.0040
     13 H          -0.1887    3.7229    1.0889 H     1    ESP         0.0040
     13 H          -0.6584    3.6877    1.0889 H     1    ESP         0.0039
     13 H          -1.0968    3.5156    1.0889 H     1    ESP         0.0036
     13 H          -1.4651    3.2219    1.0889 H     1    ESP         0.0032
     13 H          -1.7304    2.8328    1.0889 H     1    ESP         0.0026
     13 H           0.5908    3.7019    0.6791 H     1    ESP         0.0048
     13 H           0.1579    3.8812    0.6791 H     1    ESP         0.0045
     13 H          -0.3068    3.9424    0.6791 H     1    ESP         0.0043
     13 H          -0.7714    3.8812    0.6791 H     1    ESP         0.0042
     13 H          -1.2044    3.7019    0.6791 H     1    ESP         0.0040
     13 H          -1.5762    3.4166    0.6791 H     1    ESP         0.0036
     13 H          -1.8615    3.0448    0.6791 H     1    ESP         0.0031
     13 H           0.7145    3.7565    0.2296 H     1    ESP         0.0053
     13 H           0.2822    3.9599    0.2296 H     1    ESP         0.0048
     13 H          -0.1871    4.0494    0.2296 H     1    ESP         0.0046
     13 H          -0.6639    4.0194    0.2296 H     1    ESP         0.0044
     13 H          -1.1183    3.8718    0.2296 H     1    ESP         0.0042
     13 H          -1.5217    3.6158    0.2296 H     1    ESP         0.0039
     13 H          -1.8488    3.2675    0.2296 H     1    ESP         0.0035
     13 H          -2.0789    2.8488    0.2296 H     1    ESP         0.0028
     13 H           0.7145    3.7565   -0.2332 H     1    ESP         0.0053
     13 H           0.2822    3.9599   -0.2332 H     1    ESP         0.0048
     13 H          -0.1871    4.0494   -0.2332 H     1    ESP         0.0045
     13 H          -0.6639    4.0194   -0.2332 H     1    ESP         0.0044
     13 H          -1.1183    3.8718   -0.2332 H     1    ESP         0.0042
     13 H          -1.5217    3.6158   -0.2332 H     1    ESP         0.0039
     13 H          -1.8488    3.2675   -0.2332 H     1    ESP         0.0035
     13 H          -2.0789    2.8488   -0.2332 H     1    ESP         0.0028
     13 H           0.5908    3.7019   -0.6826 H     1    ESP         0.0047
     13 H           0.1579    3.8812   -0.6826 H     1    ESP         0.0045
     13 H          -0.3068    3.9424   -0.6826 H     1    ESP         0.0043
     13 H          -0.7714    3.8812   -0.6826 H     1    ESP         0.0042
     13 H          -1.2044    3.7019   -0.6826 H     1    ESP         0.0040
     13 H          -1.5762    3.4166   -0.6826 H     1    ESP         0.0036
     13 H          -1.8615    3.0448   -0.6826 H     1    ESP         0.0031
     13 H           0.6784    3.3826   -1.0925 H     1    ESP         0.0040
     13 H           0.2705    3.6181   -1.0925 H     1    ESP         0.0040
     13 H          -0.1887    3.7229   -1.0925 H     1    ESP         0.0039
     13 H          -0.6584    3.6877   -1.0925 H     1    ESP         0.0039
     13 H          -1.0968    3.5156   -1.0925 H     1    ESP         0.0036
     13 H          -1.4651    3.2219   -1.0925 H     1    ESP         0.0032
     13 H          -1.7304    2.8328   -1.0925 H     1    ESP         0.0026
     13 H           0.2607    3.2869   -1.4389 H     1    ESP         0.0031
     13 H          -0.1893    3.4150   -1.4389 H     1    ESP         0.0033
     13 H          -0.6552    3.3718   -1.4389 H     1    ESP         0.0033
     13 H          -1.0741    3.1632   -1.4389 H     1    ESP         0.0030
     13 H          -1.3893    2.8174   -1.4389 H     1    ESP         0.0023
     13 H          -1.5583    2.3811   -1.4389 H     1    ESP         0.0012
     13 H           0.1394    2.9199   -1.7019 H     1    ESP         0.0019
     13 H          -0.3068    3.0395   -1.7019 H     1    ESP         0.0024
     13 H          -0.7529    2.9199   -1.7019 H     1    ESP         0.0023
     13 H          -1.0795    2.5933   -1.7019 H     1    ESP         0.0015
     13 H          -1.1990    2.1472   -1.7019 H     1    ESP         0.0001
     13 H          -0.5365    2.5451   -1.8660 H     1    ESP         0.0010
     13 H           0.2653   -1.2149    2.7021 H     1    ESP        -0.0041
     13 H           0.7342   -1.2149    2.6610 H     1    ESP        -0.0043
     13 H           0.4998   -0.8089    2.6610 H     1    ESP        -0.0053
     13 H           0.0309   -0.8089    2.6610 H     1    ESP        -0.0051
     13 H          -0.2035   -1.2149    2.6610 H     1    ESP        -0.0040
     13 H           0.0309   -1.6210    2.6610 H     1    ESP        -0.0031
     13 H           0.4998   -1.6210    2.6610 H     1    ESP        -0.0032
     13 H           0.7271   -0.4152    2.5392 H     1    ESP        -0.0065
     13 H          -0.6581   -1.2149    2.5392 H     1    ESP        -0.0038
     13 H          -0.5344   -1.6767    2.5392 H     1    ESP        -0.0027
     13 H          -0.1964   -2.0147    2.5392 H     1    ESP        -0.0020
     13 H           0.2653   -2.1384    2.5392 H     1    ESP        -0.0018
     13 H           0.7271   -2.0147    2.5392 H     1    ESP        -0.0023
     13 H          -1.0032   -1.6767    2.3403 H     1    ESP        -0.0024
     13 H          -0.7688   -2.0827    2.3403 H     1    ESP        -0.0014
     13 H          -0.4097   -2.3841    2.3403 H     1    ESP        -0.0008
     13 H           0.0309   -2.5444    2.3403 H     1    ESP        -0.0006
     13 H           0.4998   -2.5444    2.3403 H     1    ESP        -0.0008
     13 H           0.9403   -2.3841    2.3403 H     1    ESP        -0.0012
     13 H          -1.0809   -2.3102    2.0704 H     1    ESP        -0.0004
     13 H          -0.7355   -2.6328    2.0704 H     1    ESP         0.0004
     13 H          -0.3158   -2.8503    2.0704 H     1    ESP         0.0007
     13 H           0.1469   -2.9464    2.0704 H     1    ESP         0.0006
     13 H           0.6185   -2.9142    2.0704 H     1    ESP         0.0004
     13 H           0.7256   -3.2314    1.7376 H     1    ESP         0.0016
     13 H           0.7215   -3.5083    1.3521 H     1    ESP         0.0028
     13 H           0.7256   -3.2314   -1.7335 H     1    ESP         0.0016
     13 H          -1.0809   -2.3102   -2.0663 H     1    ESP        -0.0003
     13 H          -0.7355   -2.6328   -2.0663 H     1    ESP         0.0004
     13 H          -0.3158   -2.8503   -2.0663 H     1    ESP         0.0008
     13 H           0.1469   -2.9464   -2.0663 H     1    ESP         0.0007
     13 H           0.6185   -2.9142   -2.0663 H     1    ESP         0.0004
     13 H           0.9403   -0.0458   -2.3362 H     1    ESP        -0.0080
     13 H          -1.0032   -1.6767   -2.3362 H     1    ESP        -0.0024
     13 H          -0.7688   -2.0827   -2.3362 H     1    ESP        -0.0014
     13 H          -0.4097   -2.3841   -2.3362 H     1    ESP        -0.0007
     13 H           0.0309   -2.5444   -2.3362 H     1    ESP        -0.0006
     13 H           0.4998   -2.5444   -2.3362 H     1    ESP        -0.0008
     13 H           0.9403   -2.3841   -2.3362 H     1    ESP        -0.0012
     13 H           0.7271   -0.4152   -2.5351 H     1    ESP        -0.0065
     13 H          -0.6581   -1.2149   -2.5351 H     1    ESP        -0.0038
     13 H          -0.5344   -1.6767   -2.5351 H     1    ESP        -0.0026
     13 H          -0.1964   -2.0147   -2.5351 H     1    ESP        -0.0019
     13 H           0.2653   -2.1384   -2.5351 H     1    ESP        -0.0018
     13 H           0.7271   -2.0147   -2.5351 H     1    ESP        -0.0023
     13 H           0.7342   -1.2149   -2.6569 H     1    ESP        -0.0043
     13 H           0.4998   -0.8089   -2.6569 H     1    ESP        -0.0052
     13 H           0.0309   -0.8089   -2.6569 H     1    ESP        -0.0050
     13 H          -0.2035   -1.2149   -2.6569 H     1    ESP        -0.0039
     13 H           0.0309   -1.6210   -2.6569 H     1    ESP        -0.0030
     13 H           0.4998   -1.6210   -2.6569 H     1    ESP        -0.0032
     13 H           0.2653   -1.2149   -2.6979 H     1    ESP        -0.0041
     13 H           1.6611   -1.1989    2.7146 H     1    ESP        -0.0033
     13 H           2.1299   -1.1989    2.6736 H     1    ESP        -0.0026
     13 H           1.8955   -0.7929    2.6736 H     1    ESP        -0.0038
     13 H           1.4267   -0.7929    2.6736 H     1    ESP        -0.0046
     13 H           1.1922   -1.1989    2.6736 H     1    ESP        -0.0041
     13 H           1.4267   -1.6050    2.6736 H     1    ESP        -0.0028
     13 H           1.8955   -1.6050    2.6736 H     1    ESP        -0.0021
     13 H           2.5845   -1.1989    2.5518 H     1    ESP        -0.0018
     13 H           1.1994   -0.3992    2.5518 H     1    ESP        -0.0061
     13 H           1.1994   -1.9987    2.5518 H     1    ESP        -0.0021
     13 H           1.6611   -2.1224    2.5518 H     1    ESP        -0.0013
     13 H           2.1228   -1.9987    2.5518 H     1    ESP        -0.0010
     13 H           2.4608   -1.6607    2.5518 H     1    ESP        -0.0012
     13 H           3.0111   -1.1989    2.3529 H     1    ESP        -0.0009
     13 H           0.9861   -0.0298    2.3529 H     1    ESP        -0.0080
     13 H           0.9861   -2.3681    2.3529 H     1    ESP        -0.0013
     13 H           1.4267   -2.5284    2.3529 H     1    ESP        -0.0005
     13 H           1.8955   -2.5284    2.3529 H     1    ESP        -0.0000
     13 H           2.3361   -2.3681    2.3529 H     1    ESP         0.0002
     13 H           2.6952   -2.0667    2.3529 H     1    ESP         0.0001
     13 H           2.9297   -1.6607    2.3529 H     1    ESP        -0.0003
     13 H           1.0799   -2.8343    2.0829 H     1    ESP         0.0002
     13 H           1.5426   -2.9304    2.0829 H     1    ESP         0.0008
     13 H           2.0142   -2.8982    2.0829 H     1    ESP         0.0012
     13 H           2.4595   -2.7399    2.0829 H     1    ESP         0.0015
     13 H           2.8457   -2.4673    2.0829 H     1    ESP         0.0014
     13 H           3.1440   -2.1007    2.0829 H     1    ESP         0.0011
     13 H           3.3323   -1.6672    2.0829 H     1    ESP         0.0007
     13 H           1.2008   -3.2154    1.7501 H     1    ESP         0.0016
     13 H           3.5246   -2.0964    1.7501 H     1    ESP         0.0021
     13 H           3.6775   -1.6592    1.7501 H     1    ESP         0.0018
     13 H           1.2008   -3.2154   -1.7209 H     1    ESP         0.0017
     13 H           3.5246   -2.0964   -1.7209 H     1    ESP         0.0020
     13 H           3.6775   -1.6592   -1.7209 H     1    ESP         0.0017
     13 H           1.0799   -2.8343   -2.0537 H     1    ESP         0.0002
     13 H           1.5426   -2.9304   -2.0537 H     1    ESP         0.0008
     13 H           2.0142   -2.8982   -2.0537 H     1    ESP         0.0012
     13 H           2.4595   -2.7399   -2.0537 H     1    ESP         0.0014
     13 H           2.8457   -2.4673   -2.0537 H     1    ESP         0.0013
     13 H           3.1440   -2.1007   -2.0537 H     1    ESP         0.0010
     13 H           3.3323   -1.6672   -2.0537 H     1    ESP         0.0006
     13 H           3.0111   -1.1989   -2.3237 H     1    ESP        -0.0010
     13 H           0.9861   -0.0298   -2.3237 H     1    ESP        -0.0081
     13 H           1.4267   -2.5284   -2.3237 H     1    ESP        -0.0005
     13 H           1.8955   -2.5284   -2.3237 H     1    ESP        -0.0001
     13 H           2.3361   -2.3681   -2.3237 H     1    ESP         0.0001
     13 H           2.6952   -2.0667   -2.3237 H     1    ESP         0.0000
     13 H           2.9297   -1.6607   -2.3237 H     1    ESP        -0.0004
     13 H           2.5845   -1.1989   -2.5226 H     1    ESP        -0.0019
     13 H           1.1994   -0.3992   -2.5226 H     1    ESP        -0.0062
     13 H           1.1994   -1.9987   -2.5226 H     1    ESP        -0.0022
     13 H           1.6611   -2.1224   -2.5226 H     1    ESP        -0.0014
     13 H           2.1228   -1.9987   -2.5226 H     1    ESP        -0.0011
     13 H           2.4608   -1.6607   -2.5226 H     1    ESP        -0.0012
     13 H           2.1299   -1.1989   -2.6444 H     1    ESP        -0.0027
     13 H           1.8955   -0.7929   -2.6444 H     1    ESP        -0.0039
     13 H           1.4267   -0.7929   -2.6444 H     1    ESP        -0.0047
     13 H           1.1922   -1.1989   -2.6444 H     1    ESP        -0.0041
     13 H           1.4267   -1.6050   -2.6444 H     1    ESP        -0.0028
     13 H           1.8955   -1.6050   -2.6444 H     1    ESP        -0.0022
     13 H           1.6611   -1.1989   -2.6854 H     1    ESP        -0.0034
     13 H           2.3553    0.0124    2.7214 H     1    ESP        -0.0031
     13 H           2.8241    0.0124    2.6804 H     1    ESP        -0.0020
     13 H           2.5897    0.4185    2.6804 H     1    ESP        -0.0025
     13 H           2.1209    0.4185    2.6804 H     1    ESP        -0.0037
     13 H           1.8864    0.0124    2.6804 H     1    ESP        -0.0044
     13 H           2.1209   -0.3936    2.6804 H     1    ESP        -0.0037
     13 H           2.5897   -0.3936    2.6804 H     1    ESP        -0.0025
     13 H           3.2788    0.0124    2.5586 H     1    ESP        -0.0008
     13 H           3.1550    0.4742    2.5586 H     1    ESP        -0.0011
     13 H           2.8170    0.8122    2.5586 H     1    ESP        -0.0017
     13 H           1.4318    0.0124    2.5586 H     1    ESP        -0.0059
     13 H           2.8170   -0.7873    2.5586 H     1    ESP        -0.0018
     13 H           3.1550   -0.4493    2.5586 H     1    ESP        -0.0011
     13 H           3.7053    0.0124    2.3597 H     1    ESP         0.0003
     13 H           3.6239    0.4742    2.3597 H     1    ESP         0.0002
     13 H           3.3895    0.8802    2.3597 H     1    ESP        -0.0002
     13 H           3.0303    1.1816    2.3597 H     1    ESP        -0.0008
     13 H           1.0053    0.0124    2.3597 H     1    ESP        -0.0079
     13 H           3.0303   -1.1567    2.3597 H     1    ESP        -0.0009
     13 H           3.3895   -0.8553    2.3597 H     1    ESP        -0.0003
     13 H           3.6239   -0.4493    2.3597 H     1    ESP         0.0002
     13 H           4.0265    0.4807    2.0897 H     1    ESP         0.0015
     13 H           3.8382    0.9142    2.0897 H     1    ESP         0.0011
     13 H           3.5399    1.2808    2.0897 H     1    ESP         0.0007
     13 H           3.5399   -1.2559    2.0897 H     1    ESP         0.0006
     13 H           3.8382   -0.8893    2.0897 H     1    ESP         0.0011
     13 H           4.0265   -0.4558    2.0897 H     1    ESP         0.0014
     13 H           3.9724    1.3020    1.7569 H     1    ESP         0.0020
     13 H           3.9724   -1.2771    1.7569 H     1    ESP         0.0020
     13 H           4.0087    1.6659    1.3714 H     1    ESP         0.0030
     13 H           4.0087   -1.6410    1.3714 H     1    ESP         0.0030
     13 H           4.0087    1.6659   -1.3286 H     1    ESP         0.0029
     13 H           4.0087   -1.6410   -1.3286 H     1    ESP         0.0029
     13 H           3.9724    1.3020   -1.7141 H     1    ESP         0.0019
     13 H           3.9724   -1.2771   -1.7141 H     1    ESP         0.0019
     13 H           4.0908    0.0124   -2.0469 H     1    ESP         0.0015
     13 H           4.0265    0.4807   -2.0469 H     1    ESP         0.0013
     13 H           3.8382    0.9142   -2.0469 H     1    ESP         0.0010
     13 H           3.5399    1.2808   -2.0469 H     1    ESP         0.0005
     13 H           3.5399   -1.2559   -2.0469 H     1    ESP         0.0005
     13 H           3.8382   -0.8893   -2.0469 H     1    ESP         0.0010
     13 H           4.0265   -0.4558   -2.0469 H     1    ESP         0.0013
     13 H           3.7053    0.0124   -2.3169 H     1    ESP         0.0002
     13 H           3.6239    0.4742   -2.3169 H     1    ESP         0.0001
     13 H           3.3895    0.8802   -2.3169 H     1    ESP        -0.0004
     13 H           3.0303    1.1816   -2.3169 H     1    ESP        -0.0010
     13 H           1.0053    0.0124   -2.3169 H     1    ESP        -0.0081
     13 H           3.0303   -1.1567   -2.3169 H     1    ESP        -0.0010
     13 H           3.3895   -0.8553   -2.3169 H     1    ESP        -0.0004
     13 H           3.6239   -0.4493   -2.3169 H     1    ESP         0.0000
     13 H           3.2788    0.0124   -2.5158 H     1    ESP        -0.0010
     13 H           3.1550    0.4742   -2.5158 H     1    ESP        -0.0012
     13 H           2.8170    0.8122   -2.5158 H     1    ESP        -0.0019
     13 H           1.4318    0.0124   -2.5158 H     1    ESP        -0.0061
     13 H           2.8170   -0.7873   -2.5158 H     1    ESP        -0.0019
     13 H           3.1550   -0.4493   -2.5158 H     1    ESP        -0.0012
     13 H           2.8241    0.0124   -2.6376 H     1    ESP        -0.0021
     13 H           2.5897    0.4185   -2.6376 H     1    ESP        -0.0026
     13 H           2.1209    0.4185   -2.6376 H     1    ESP        -0.0038
     13 H           1.8864    0.0124   -2.6376 H     1    ESP        -0.0046
     13 H           2.1209   -0.3936   -2.6376 H     1    ESP        -0.0038
     13 H           2.5897   -0.3936   -2.6376 H     1    ESP        -0.0026
     13 H           2.3553    0.0124   -2.6786 H     1    ESP        -0.0033
     13 H           1.6483    1.2164    2.7157 H     1    ESP        -0.0033
     13 H           2.1172    1.2164    2.6747 H     1    ESP        -0.0026
     13 H           1.8827    1.6225    2.6747 H     1    ESP        -0.0021
     13 H           1.4139    1.6225    2.6747 H     1    ESP        -0.0028
     13 H           1.1795    1.2164    2.6747 H     1    ESP        -0.0040
     13 H           1.4139    0.8104    2.6747 H     1    ESP        -0.0046
     13 H           1.8827    0.8104    2.6747 H     1    ESP        -0.0038
     13 H           2.5718    1.2164    2.5528 H     1    ESP        -0.0018
     13 H           2.4480    1.6782    2.5528 H     1    ESP        -0.0012
     13 H           2.1100    2.0162    2.5528 H     1    ESP        -0.0010
     13 H           1.6483    2.1399    2.5528 H     1    ESP        -0.0013
     13 H           1.1866    2.0162    2.5528 H     1    ESP        -0.0021
     13 H           1.1866    0.4167    2.5528 H     1    ESP        -0.0061
     13 H           2.9983    1.2164    2.3539 H     1    ESP        -0.0009
     13 H           2.9169    1.6782    2.3539 H     1    ESP        -0.0003
     13 H           2.6825    2.0842    2.3539 H     1    ESP         0.0001
     13 H           2.3233    2.3856    2.3539 H     1    ESP         0.0002
     13 H           1.8827    2.5459    2.3539 H     1    ESP        -0.0000
     13 H           1.4139    2.5459    2.3539 H     1    ESP        -0.0005
     13 H           0.9733    2.3856    2.3539 H     1    ESP        -0.0012
     13 H           0.9733    0.0473    2.3539 H     1    ESP        -0.0080
     13 H           3.3195    1.6847    2.0840 H     1    ESP         0.0007
     13 H           3.1312    2.1182    2.0840 H     1    ESP         0.0011
     13 H           2.8329    2.4848    2.0840 H     1    ESP         0.0014
     13 H           2.4468    2.7574    2.0840 H     1    ESP         0.0015
     13 H           2.0014    2.9157    2.0840 H     1    ESP         0.0012
     13 H           1.5299    2.9479    2.0840 H     1    ESP         0.0008
     13 H           1.0671    2.8518    2.0840 H     1    ESP         0.0003
     13 H           3.6648    1.6767    1.7512 H     1    ESP         0.0018
     13 H           3.5118    2.1139    1.7512 H     1    ESP         0.0021
     13 H           1.1881    3.2329    1.7512 H     1    ESP         0.0017
     13 H           3.6648    1.6767   -1.7199 H     1    ESP         0.0017
     13 H           3.5118    2.1139   -1.7199 H     1    ESP         0.0020
     13 H           1.1881    3.2329   -1.7199 H     1    ESP         0.0017
     13 H           3.3195    1.6847   -2.0526 H     1    ESP         0.0006
     13 H           3.1312    2.1182   -2.0526 H     1    ESP         0.0010
     13 H           2.8329    2.4848   -2.0526 H     1    ESP         0.0013
     13 H           2.4468    2.7574   -2.0526 H     1    ESP         0.0014
     13 H           2.0014    2.9157   -2.0526 H     1    ESP         0.0012
     13 H           1.5299    2.9479   -2.0526 H     1    ESP         0.0008
     13 H           1.0671    2.8518   -2.0526 H     1    ESP         0.0003
     13 H           2.9983    1.2164   -2.3226 H     1    ESP        -0.0010
     13 H           2.9169    1.6782   -2.3226 H     1    ESP        -0.0004
     13 H           2.6825    2.0842   -2.3226 H     1    ESP         0.0000
     13 H           2.3233    2.3856   -2.3226 H     1    ESP         0.0001
     13 H           1.8827    2.5459   -2.3226 H     1    ESP        -0.0001
     13 H           1.4139    2.5459   -2.3226 H     1    ESP        -0.0005
     13 H           0.9733    2.3856   -2.3226 H     1    ESP        -0.0013
     13 H           0.9733    0.0473   -2.3226 H     1    ESP        -0.0081
     13 H           2.5718    1.2164   -2.5215 H     1    ESP        -0.0019
     13 H           2.4480    1.6782   -2.5215 H     1    ESP        -0.0013
     13 H           2.1100    2.0162   -2.5215 H     1    ESP        -0.0011
     13 H           1.6483    2.1399   -2.5215 H     1    ESP        -0.0014
     13 H           1.1866    2.0162   -2.5215 H     1    ESP        -0.0021
     13 H           1.1866    0.4167   -2.5215 H     1    ESP        -0.0062
     13 H           2.1172    1.2164   -2.6433 H     1    ESP        -0.0027
     13 H           1.8827    1.6225   -2.6433 H     1    ESP        -0.0022
     13 H           1.4139    1.6225   -2.6433 H     1    ESP        -0.0028
     13 H           1.1795    1.2164   -2.6433 H     1    ESP        -0.0041
     13 H           1.4139    0.8104   -2.6433 H     1    ESP        -0.0047
     13 H           1.8827    0.8104   -2.6433 H     1    ESP        -0.0039
     13 H           1.6483    1.2164   -2.6843 H     1    ESP        -0.0034
     13 H           0.2525    1.2177    2.7030 H     1    ESP        -0.0041
     13 H           0.7213    1.2177    2.6620 H     1    ESP        -0.0043
     13 H           0.4869    1.6237    2.6620 H     1    ESP        -0.0032
     13 H           0.0181    1.6237    2.6620 H     1    ESP        -0.0030
     13 H          -0.2164    1.2177    2.6620 H     1    ESP        -0.0039
     13 H           0.0181    0.8116    2.6620 H     1    ESP        -0.0051
     13 H           0.4869    0.8116    2.6620 H     1    ESP        -0.0053
     13 H           0.7142    2.0174    2.5402 H     1    ESP        -0.0023
     13 H           0.2525    2.1411    2.5402 H     1    ESP        -0.0018
     13 H          -0.2092    2.0174    2.5402 H     1    ESP        -0.0019
     13 H          -0.5473    1.6794    2.5402 H     1    ESP        -0.0026
     13 H          -0.6710    1.2177    2.5402 H     1    ESP        -0.0038
     13 H           0.7142    0.4179    2.5402 H     1    ESP        -0.0065
     13 H           0.9275    2.3868    2.3413 H     1    ESP        -0.0013
     13 H           0.4869    2.5472    2.3413 H     1    ESP        -0.0008
     13 H           0.0181    2.5472    2.3413 H     1    ESP        -0.0006
     13 H          -0.4225    2.3868    2.3413 H     1    ESP        -0.0008
     13 H          -0.7817    2.0854    2.3413 H     1    ESP        -0.0014
     13 H          -1.0161    1.6794    2.3413 H     1    ESP        -0.0024
     13 H           0.9275    0.0485    2.3413 H     1    ESP        -0.0081
     13 H           0.6056    2.9169    2.0714 H     1    ESP         0.0004
     13 H           0.1340    2.9492    2.0714 H     1    ESP         0.0006
     13 H          -0.3287    2.8530    2.0714 H     1    ESP         0.0007
     13 H          -0.7484    2.6355    2.0714 H     1    ESP         0.0004
     13 H          -1.0938    2.3129    2.0714 H     1    ESP        -0.0003
     13 H           0.7127    3.2341    1.7386 H     1    ESP         0.0016
     13 H           0.7087    3.5110    1.3530 H     1    ESP         0.0028
     13 H           0.7087    3.5110   -1.3470 H     1    ESP         0.0028
     13 H           0.7127    3.2341   -1.7325 H     1    ESP         0.0016
     13 H           0.6056    2.9169   -2.0653 H     1    ESP         0.0004
     13 H           0.1340    2.9492   -2.0653 H     1    ESP         0.0007
     13 H          -0.3287    2.8530   -2.0653 H     1    ESP         0.0007
     13 H          -0.7484    2.6355   -2.0653 H     1    ESP         0.0005
     13 H          -1.0938    2.3129   -2.0653 H     1    ESP        -0.0003
     13 H           0.9275    2.3868   -2.3352 H     1    ESP        -0.0013
     13 H           0.4869    2.5472   -2.3352 H     1    ESP        -0.0008
     13 H           0.0181    2.5472   -2.3352 H     1    ESP        -0.0006
     13 H          -0.4225    2.3868   -2.3352 H     1    ESP        -0.0007
     13 H          -0.7817    2.0854   -2.3352 H     1    ESP        -0.0013
     13 H          -1.0161    1.6794   -2.3352 H     1    ESP        -0.0024
     13 H           0.7142    2.0174   -2.5341 H     1    ESP        -0.0023
     13 H           0.2525    2.1411   -2.5341 H     1    ESP        -0.0018
     13 H          -0.2092    2.0174   -2.5341 H     1    ESP        -0.0019
     13 H          -0.5473    1.6794   -2.5341 H     1    ESP        -0.0026
     13 H          -0.6710    1.2177   -2.5341 H     1    ESP        -0.0038
     13 H           0.7142    0.4179   -2.5341 H     1    ESP        -0.0065
     13 H           0.7213    1.2177   -2.6559 H     1    ESP        -0.0043
     13 H           0.4869    1.6237   -2.6559 H     1    ESP        -0.0032
     13 H           0.0181    1.6237   -2.6559 H     1    ESP        -0.0030
     13 H          -0.2164    1.2177   -2.6559 H     1    ESP        -0.0039
     13 H           0.0181    0.8116   -2.6559 H     1    ESP        -0.0050
     13 H           0.4869    0.8116   -2.6559 H     1    ESP        -0.0052
     13 H           0.2525    1.2177   -2.6970 H     1    ESP        -0.0041
     13 H          -0.4236   -0.0022    2.6964 H     1    ESP        -0.0052
     13 H           0.0452   -0.0022    2.6554 H     1    ESP        -0.0059
     13 H          -0.1892    0.4038    2.6554 H     1    ESP        -0.0055
     13 H          -0.6581    0.4038    2.6554 H     1    ESP        -0.0049
     13 H          -0.6581   -0.4083    2.6554 H     1    ESP        -0.0049
     13 H          -0.1892   -0.4083    2.6554 H     1    ESP        -0.0055
     13 H           0.4998   -0.0022    2.5336 H     1    ESP        -0.0069
     13 H           0.9264   -0.0022    2.3347 H     1    ESP        -0.0082
     13 H           0.9264   -0.0022   -2.3419 H     1    ESP        -0.0080
     13 H           0.4998   -0.0022   -2.5408 H     1    ESP        -0.0067
     13 H           0.0452   -0.0022   -2.6626 H     1    ESP        -0.0058
     13 H          -0.1892    0.4038   -2.6626 H     1    ESP        -0.0054
     13 H          -0.6581    0.4038   -2.6626 H     1    ESP        -0.0049
     13 H          -0.6581   -0.4083   -2.6626 H     1    ESP        -0.0049
     13 H          -0.1892   -0.4083   -2.6626 H     1    ESP        -0.0054
     13 H          -0.4236   -0.0022   -2.7036 H     1    ESP        -0.0052
     13 H          -2.1848   -0.0115    3.0399 H     1    ESP        -0.0019
     13 H          -1.7287   -0.0115    3.0057 H     1    ESP        -0.0025
     13 H          -1.9567    0.3834    3.0057 H     1    ESP        -0.0022
     13 H          -2.4128    0.3834    3.0057 H     1    ESP        -0.0016
     13 H          -2.6408   -0.0115    3.0057 H     1    ESP        -0.0014
     13 H          -2.4128   -0.4065    3.0057 H     1    ESP        -0.0016
     13 H          -1.9567   -0.4065    3.0057 H     1    ESP        -0.0022
     13 H          -1.2828   -0.0115    2.9039 H     1    ESP        -0.0033
     13 H          -1.4036    0.4394    2.9039 H     1    ESP        -0.0030
     13 H          -1.7338    0.7696    2.9039 H     1    ESP        -0.0024
     13 H          -2.1848    0.8904    2.9039 H     1    ESP        -0.0018
     13 H          -2.6357    0.7696    2.9039 H     1    ESP        -0.0013
     13 H          -2.9659    0.4394    2.9039 H     1    ESP        -0.0011
     13 H          -3.0867   -0.0115    2.9039 H     1    ESP        -0.0010
     13 H          -2.9659   -0.4625    2.9039 H     1    ESP        -0.0011
     13 H          -2.6357   -0.7927    2.9039 H     1    ESP        -0.0013
     13 H          -2.1848   -0.9135    2.9039 H     1    ESP        -0.0018
     13 H          -1.7338   -0.7927    2.9039 H     1    ESP        -0.0024
     13 H          -1.4036   -0.4625    2.9039 H     1    ESP        -0.0030
     13 H          -0.8571   -0.0115    2.7368 H     1    ESP        -0.0045
     13 H          -0.9371    0.4425    2.7368 H     1    ESP        -0.0042
     13 H          -1.1677    0.8419    2.7368 H     1    ESP        -0.0034
     13 H          -1.5209    1.1383    2.7368 H     1    ESP        -0.0025
     13 H          -1.9542    1.2960    2.7368 H     1    ESP        -0.0018
     13 H          -2.4153    1.2960    2.7368 H     1    ESP        -0.0014
     13 H          -2.8486    1.1383    2.7368 H     1    ESP        -0.0010
     13 H          -3.2018    0.8419    2.7368 H     1    ESP        -0.0008
     13 H          -3.4324    0.4425    2.7368 H     1    ESP        -0.0006
     13 H          -3.5124   -0.0115    2.7368 H     1    ESP        -0.0005
     13 H          -3.4324   -0.4656    2.7368 H     1    ESP        -0.0006
     13 H          -3.2018   -0.8650    2.7368 H     1    ESP        -0.0008
     13 H          -2.8486   -1.1614    2.7368 H     1    ESP        -0.0010
     13 H          -2.4153   -1.3191    2.7368 H     1    ESP        -0.0014
     13 H          -1.9542   -1.3191    2.7368 H     1    ESP        -0.0018
     13 H          -1.5209   -1.1614    2.7368 H     1    ESP        -0.0025
     13 H          -1.1677   -0.8650    2.7368 H     1    ESP        -0.0033
     13 H          -0.9371   -0.4656    2.7368 H     1    ESP        -0.0041
     13 H          -1.0082    1.2482    2.5082 H     1    ESP        -0.0034
     13 H          -1.3917    1.5190    2.5082 H     1    ESP        -0.0023
     13 H          -1.8341    1.6762    2.5082 H     1    ESP        -0.0016
     13 H          -2.3024    1.7082    2.5082 H     1    ESP        -0.0012
     13 H          -2.7620    1.6127    2.5082 H     1    ESP        -0.0009
     13 H          -3.1788    1.3967    2.5082 H     1    ESP        -0.0006
     13 H          -3.5219    1.0763    2.5082 H     1    ESP        -0.0004
     13 H          -3.7658    0.6752    2.5082 H     1    ESP        -0.0002
     13 H          -3.8925    0.2232    2.5082 H     1    ESP        -0.0000
     13 H          -3.8925   -0.2463    2.5082 H     1    ESP        -0.0000
     13 H          -3.7658   -0.6983    2.5082 H     1    ESP        -0.0002
     13 H          -3.5219   -1.0994    2.5082 H     1    ESP        -0.0004
     13 H          -3.1788   -1.4198    2.5082 H     1    ESP        -0.0006
     13 H          -2.7620   -1.6358    2.5082 H     1    ESP        -0.0009
     13 H          -2.3024   -1.7313    2.5082 H     1    ESP        -0.0012
     13 H          -1.8341   -1.6993    2.5082 H     1    ESP        -0.0016
     13 H          -1.3917   -1.5420    2.5082 H     1    ESP        -0.0022
     13 H          -1.0082   -1.2713    2.5082 H     1    ESP        -0.0033
     13 H          -1.2817    1.8637    2.2230 H     1    ESP        -0.0017
     13 H          -1.7216    2.0176    2.2230 H     1    ESP        -0.0011
     13 H          -2.1848    2.0698    2.2230 H     1    ESP        -0.0009
     13 H          -2.6479    2.0176    2.2230 H     1    ESP        -0.0007
     13 H          -3.0878    1.8637    2.2230 H     1    ESP        -0.0005
     13 H          -3.4824    1.6157    2.2230 H     1    ESP        -0.0003
     13 H          -3.8120    1.2861    2.2230 H     1    ESP        -0.0000
     13 H          -4.0600    0.8915    2.2230 H     1    ESP         0.0003
     13 H          -4.2139    0.4516    2.2230 H     1    ESP         0.0005
     13 H          -4.2661   -0.0115    2.2230 H     1    ESP         0.0006
     13 H          -4.2139   -0.4747    2.2230 H     1    ESP         0.0005
     13 H          -4.0600   -0.9146    2.2230 H     1    ESP         0.0003
     13 H          -3.8120   -1.3092    2.2230 H     1    ESP         0.0000
     13 H          -3.4824   -1.6388    2.2230 H     1    ESP        -0.0003
     13 H          -3.0878   -1.8868    2.2230 H     1    ESP        -0.0005
     13 H          -2.6479   -2.0407    2.2230 H     1    ESP        -0.0007
     13 H          -2.1848   -2.0929    2.2230 H     1    ESP        -0.0008
     13 H          -1.7216   -2.0407    2.2230 H     1    ESP        -0.0011
     13 H          -1.2817   -1.8868    2.2230 H     1    ESP        -0.0016
     13 H          -1.7180    2.3349    1.8878 H     1    ESP        -0.0002
     13 H          -2.1848    2.3809    1.8878 H     1    ESP        -0.0003
     13 H          -2.6515    2.3349    1.8878 H     1    ESP        -0.0003
     13 H          -3.1003    2.1987    1.8878 H     1    ESP        -0.0003
     13 H          -3.5139    1.9777    1.8878 H     1    ESP        -0.0001
     13 H          -3.8764    1.6801    1.8878 H     1    ESP         0.0002
     13 H          -4.1740    1.3176    1.8878 H     1    ESP         0.0005
     13 H          -4.3951    0.9040    1.8878 H     1    ESP         0.0009
     13 H          -4.5312    0.4552    1.8878 H     1    ESP         0.0012
     13 H          -4.5772   -0.0115    1.8878 H     1    ESP         0.0013
     13 H          -4.5312   -0.4783    1.8878 H     1    ESP         0.0012
     13 H          -4.3951   -0.9271    1.8878 H     1    ESP         0.0009
     13 H          -4.1740   -1.3407    1.8878 H     1    ESP         0.0005
     13 H          -3.8764   -1.7032    1.8878 H     1    ESP         0.0002
     13 H          -3.5139   -2.0008    1.8878 H     1    ESP        -0.0001
     13 H          -3.1003   -2.2218    1.8878 H     1    ESP        -0.0003
     13 H          -2.6515   -2.3580    1.8878 H     1    ESP        -0.0003
     13 H          -2.1848   -2.4040    1.8878 H     1    ESP        -0.0003
     13 H          -1.7180   -2.3580    1.8878 H     1    ESP        -0.0002
     13 H          -2.1848    2.6385    1.5099 H     1    ESP         0.0004
     13 H          -2.6449    2.5982    1.5099 H     1    ESP         0.0001
     13 H          -3.0911    2.4787    1.5099 H     1    ESP        -0.0000
     13 H          -3.5098    2.2835    1.5099 H     1    ESP         0.0001
     13 H          -3.8882    2.0185    1.5099 H     1    ESP         0.0003
     13 H          -4.2148    1.6919    1.5099 H     1    ESP         0.0007
     13 H          -4.4798    1.3135    1.5099 H     1    ESP         0.0011
     13 H          -4.6750    0.8948    1.5099 H     1    ESP         0.0016
     13 H          -4.7945    0.4486    1.5099 H     1    ESP         0.0020
     13 H          -4.8348   -0.0115    1.5099 H     1    ESP         0.0022
     13 H          -4.7945   -0.4717    1.5099 H     1    ESP         0.0020
     13 H          -4.6750   -0.9179    1.5099 H     1    ESP         0.0016
     13 H          -4.4798   -1.3366    1.5099 H     1    ESP         0.0012
     13 H          -4.2148   -1.7150    1.5099 H     1    ESP         0.0007
     13 H          -3.8882   -2.0416    1.5099 H     1    ESP         0.0003
     13 H          -3.5098   -2.3065    1.5099 H     1    ESP         0.0001
     13 H          -3.0911   -2.5018    1.5099 H     1    ESP        -0.0000
     13 H          -2.6449   -2.6213    1.5099 H     1    ESP         0.0001
     13 H          -2.1848   -2.6616    1.5099 H     1    ESP         0.0004
     13 H          -2.2995    2.8346    1.0978 H     1    ESP         0.0009
     13 H          -2.7545    2.7794    1.0978 H     1    ESP         0.0004
     13 H          -3.1948    2.6518    1.0978 H     1    ESP         0.0002
     13 H          -3.6090    2.4553    1.0978 H     1    ESP         0.0003
     13 H          -3.9863    2.1949    1.0978 H     1    ESP         0.0005
     13 H          -4.3169    1.8773    1.0978 H     1    ESP         0.0009
     13 H          -4.5923    1.5109    1.0978 H     1    ESP         0.0015
     13 H          -4.8053    1.1050    1.0978 H     1    ESP         0.0021
     13 H          -4.9505    0.6701    1.0978 H     1    ESP         0.0027
     13 H          -5.0240    0.2177    1.0978 H     1    ESP         0.0031
     13 H          -5.0240   -0.2408    1.0978 H     1    ESP         0.0031
     13 H          -4.9505   -0.6932    1.0978 H     1    ESP         0.0028
     13 H          -4.8053   -1.1281    1.0978 H     1    ESP         0.0021
     13 H          -4.5923   -1.5340    1.0978 H     1    ESP         0.0015
     13 H          -4.3169   -1.9004    1.0978 H     1    ESP         0.0009
     13 H          -3.9863   -2.2180    1.0978 H     1    ESP         0.0005
     13 H          -3.6090   -2.4784    1.0978 H     1    ESP         0.0003
     13 H          -3.1948   -2.6749    1.0978 H     1    ESP         0.0002
     13 H          -2.7545   -2.8025    1.0978 H     1    ESP         0.0004
     13 H          -2.2995   -2.8577    1.0978 H     1    ESP         0.0009
     13 H          -2.6514    2.9350    0.6608 H     1    ESP         0.0008
     13 H          -3.1066    2.8257    0.6608 H     1    ESP         0.0004
     13 H          -3.5391    2.6466    0.6608 H     1    ESP         0.0004
     13 H          -3.9383    2.4020    0.6608 H     1    ESP         0.0006
     13 H          -4.2943    2.0979    0.6608 H     1    ESP         0.0009
     13 H          -4.5983    1.7420    0.6608 H     1    ESP         0.0015
     13 H          -4.8429    1.3428    0.6608 H     1    ESP         0.0023
     13 H          -5.0220    0.9103    0.6608 H     1    ESP         0.0031
     13 H          -5.1313    0.4551    0.6608 H     1    ESP         0.0039
     13 H          -5.1680   -0.0115    0.6608 H     1    ESP         0.0042
     13 H          -5.1313   -0.4782    0.6608 H     1    ESP         0.0039
     13 H          -5.0220   -0.9334    0.6608 H     1    ESP         0.0032
     13 H          -4.8429   -1.3659    0.6608 H     1    ESP         0.0023
     13 H          -4.5983   -1.7651    0.6608 H     1    ESP         0.0016
     13 H          -4.2943   -2.1210    0.6608 H     1    ESP         0.0010
     13 H          -3.9383   -2.4251    0.6608 H     1    ESP         0.0006
     13 H          -3.5391   -2.6697    0.6608 H     1    ESP         0.0004
     13 H          -3.1066   -2.8488    0.6608 H     1    ESP         0.0004
     13 H          -2.6514   -2.9581    0.6608 H     1    ESP         0.0008
     13 H          -2.1848   -2.9948    0.6608 H     1    ESP         0.0017
     13 H          -2.5347    3.0198    0.2086 H     1    ESP         0.0012
     13 H          -2.9933    2.9308    0.2086 H     1    ESP         0.0006
     13 H          -3.4330    2.7729    0.2086 H     1    ESP         0.0004
     13 H          -3.8434    2.5497    0.2086 H     1    ESP         0.0006
     13 H          -4.2150    2.2665    0.2086 H     1    ESP         0.0009
     13 H          -4.5389    1.9299    0.2086 H     1    ESP         0.0014
     13 H          -4.8077    1.5478    0.2086 H     1    ESP         0.0022
     13 H          -5.0150    1.1291    0.2086 H     1    ESP         0.0031
     13 H          -5.1559    0.6837    0.2086 H     1    ESP         0.0041
     13 H          -5.2273    0.2220    0.2086 H     1    ESP         0.0048
     13 H          -5.2273   -0.2451    0.2086 H     1    ESP         0.0049
     13 H          -5.1559   -0.7068    0.2086 H     1    ESP         0.0042
     13 H          -5.0150   -1.1522    0.2086 H     1    ESP         0.0032
     13 H          -4.8077   -1.5709    0.2086 H     1    ESP         0.0023
     13 H          -4.5389   -1.9530    0.2086 H     1    ESP         0.0015
     13 H          -4.2150   -2.2896    0.2086 H     1    ESP         0.0009
     13 H          -3.8434   -2.5728    0.2086 H     1    ESP         0.0006
     13 H          -3.4330   -2.7960    0.2086 H     1    ESP         0.0004
     13 H          -2.9933   -2.9539    0.2086 H     1    ESP         0.0006
     13 H          -2.5347   -3.0429    0.2086 H     1    ESP         0.0012
     13 H          -2.5347    3.0198   -0.2488 H     1    ESP         0.0012
     13 H          -2.9933    2.9308   -0.2488 H     1    ESP         0.0006
     13 H          -3.4330    2.7729   -0.2488 H     1    ESP         0.0004
     13 H          -3.8434    2.5497   -0.2488 H     1    ESP         0.0006
     13 H          -4.2150    2.2665   -0.2488 H     1    ESP         0.0009
     13 H          -4.5389    1.9299   -0.2488 H     1    ESP         0.0014
     13 H          -4.8077    1.5478   -0.2488 H     1    ESP         0.0022
     13 H          -5.0150    1.1291   -0.2488 H     1    ESP         0.0032
     13 H          -5.1559    0.6837   -0.2488 H     1    ESP         0.0042
     13 H          -5.2273    0.2220   -0.2488 H     1    ESP         0.0049
     13 H          -5.2273   -0.2451   -0.2488 H     1    ESP         0.0049
     13 H          -5.1559   -0.7068   -0.2488 H     1    ESP         0.0042
     13 H          -5.0150   -1.1522   -0.2488 H     1    ESP         0.0032
     13 H          -4.8077   -1.5709   -0.2488 H     1    ESP         0.0023
     13 H          -4.5389   -1.9530   -0.2488 H     1    ESP         0.0015
     13 H          -4.2150   -2.2896   -0.2488 H     1    ESP         0.0009
     13 H          -3.8434   -2.5728   -0.2488 H     1    ESP         0.0006
     13 H          -3.4330   -2.7960   -0.2488 H     1    ESP         0.0004
     13 H          -2.9933   -2.9539   -0.2488 H     1    ESP         0.0006
     13 H          -2.5347   -3.0429   -0.2488 H     1    ESP         0.0012
     13 H          -2.1848    2.9717   -0.7010 H     1    ESP         0.0018
     13 H          -2.6514    2.9350   -0.7010 H     1    ESP         0.0008
     13 H          -3.1066    2.8257   -0.7010 H     1    ESP         0.0004
     13 H          -3.5391    2.6466   -0.7010 H     1    ESP         0.0004
     13 H          -3.9383    2.4020   -0.7010 H     1    ESP         0.0006
     13 H          -4.2943    2.0979   -0.7010 H     1    ESP         0.0010
     13 H          -4.5983    1.7420   -0.7010 H     1    ESP         0.0016
     13 H          -4.8429    1.3428   -0.7010 H     1    ESP         0.0023
     13 H          -5.0220    0.9103   -0.7010 H     1    ESP         0.0032
     13 H          -5.1313    0.4551   -0.7010 H     1    ESP         0.0040
     13 H          -5.1680   -0.0115   -0.7010 H     1    ESP         0.0043
     13 H          -5.1313   -0.4782   -0.7010 H     1    ESP         0.0040
     13 H          -5.0220   -0.9334   -0.7010 H     1    ESP         0.0033
     13 H          -4.8429   -1.3659   -0.7010 H     1    ESP         0.0024
     13 H          -4.5983   -1.7651   -0.7010 H     1    ESP         0.0016
     13 H          -4.2943   -2.1210   -0.7010 H     1    ESP         0.0010
     13 H          -3.9383   -2.4251   -0.7010 H     1    ESP         0.0006
     13 H          -3.5391   -2.6697   -0.7010 H     1    ESP         0.0004
     13 H          -3.1066   -2.8488   -0.7010 H     1    ESP         0.0004
     13 H          -2.6514   -2.9581   -0.7010 H     1    ESP         0.0008
     13 H          -2.1848   -2.9948   -0.7010 H     1    ESP         0.0017
     13 H          -2.2995    2.8346   -1.1381 H     1    ESP         0.0009
     13 H          -2.7545    2.7794   -1.1381 H     1    ESP         0.0004
     13 H          -3.1948    2.6518   -1.1381 H     1    ESP         0.0002
     13 H          -3.6090    2.4553   -1.1381 H     1    ESP         0.0003
     13 H          -3.9863    2.1949   -1.1381 H     1    ESP         0.0005
     13 H          -4.3169    1.8773   -1.1381 H     1    ESP         0.0009
     13 H          -4.5923    1.5109   -1.1381 H     1    ESP         0.0015
     13 H          -4.8053    1.1050   -1.1381 H     1    ESP         0.0022
     13 H          -4.9505    0.6701   -1.1381 H     1    ESP         0.0028
     13 H          -5.0240    0.2177   -1.1381 H     1    ESP         0.0032
     13 H          -5.0240   -0.2408   -1.1381 H     1    ESP         0.0033
     13 H          -4.9505   -0.6932   -1.1381 H     1    ESP         0.0029
     13 H          -4.8053   -1.1281   -1.1381 H     1    ESP         0.0022
     13 H          -4.5923   -1.5340   -1.1381 H     1    ESP         0.0016
     13 H          -4.3169   -1.9004   -1.1381 H     1    ESP         0.0010
     13 H          -3.9863   -2.2180   -1.1381 H     1    ESP         0.0006
     13 H          -3.6090   -2.4784   -1.1381 H     1    ESP         0.0003
     13 H          -3.1948   -2.6749   -1.1381 H     1    ESP         0.0002
     13 H          -2.7545   -2.8025   -1.1381 H     1    ESP         0.0004
     13 H          -2.2995   -2.8577   -1.1381 H     1    ESP         0.0009
     13 H          -2.1848    2.6385   -1.5501 H     1    ESP         0.0004
     13 H          -2.6449    2.5982   -1.5501 H     1    ESP         0.0001
     13 H          -3.0911    2.4787   -1.5501 H     1    ESP        -0.0000
     13 H          -3.5098    2.2835   -1.5501 H     1    ESP         0.0001
     13 H          -3.8882    2.0185   -1.5501 H     1    ESP         0.0003
     13 H          -4.2148    1.6919   -1.5501 H     1    ESP         0.0007
     13 H          -4.4798    1.3135   -1.5501 H     1    ESP         0.0012
     13 H          -4.6750    0.8948   -1.5501 H     1    ESP         0.0017
     13 H          -4.7945    0.4486   -1.5501 H     1    ESP         0.0021
     13 H          -4.8348   -0.0115   -1.5501 H     1    ESP         0.0023
     13 H          -4.7945   -0.4717   -1.5501 H     1    ESP         0.0021
     13 H          -4.6750   -0.9179   -1.5501 H     1    ESP         0.0017
     13 H          -4.4798   -1.3366   -1.5501 H     1    ESP         0.0012
     13 H          -4.2148   -1.7150   -1.5501 H     1    ESP         0.0007
     13 H          -3.8882   -2.0416   -1.5501 H     1    ESP         0.0004
     13 H          -3.5098   -2.3065   -1.5501 H     1    ESP         0.0001
     13 H          -3.0911   -2.5018   -1.5501 H     1    ESP        -0.0000
     13 H          -2.6449   -2.6213   -1.5501 H     1    ESP         0.0001
     13 H          -2.1848   -2.6616   -1.5501 H     1    ESP         0.0003
     13 H          -1.7246   -2.6213   -1.5501 H     1    ESP         0.0009
     13 H          -1.7180    2.3349   -1.9280 H     1    ESP        -0.0002
     13 H          -2.1848    2.3809   -1.9280 H     1    ESP        -0.0003
     13 H          -2.6515    2.3349   -1.9280 H     1    ESP        -0.0003
     13 H          -3.1003    2.1987   -1.9280 H     1    ESP        -0.0002
     13 H          -3.5139    1.9777   -1.9280 H     1    ESP        -0.0001
     13 H          -3.8764    1.6801   -1.9280 H     1    ESP         0.0002
     13 H          -4.1740    1.3176   -1.9280 H     1    ESP         0.0006
     13 H          -4.3951    0.9040   -1.9280 H     1    ESP         0.0009
     13 H          -4.5312    0.4552   -1.9280 H     1    ESP         0.0013
     13 H          -4.5772   -0.0115   -1.9280 H     1    ESP         0.0014
     13 H          -4.5312   -0.4783   -1.9280 H     1    ESP         0.0013
     13 H          -4.3951   -0.9271   -1.9280 H     1    ESP         0.0010
     13 H          -4.1740   -1.3407   -1.9280 H     1    ESP         0.0006
     13 H          -3.8764   -1.7032   -1.9280 H     1    ESP         0.0002
     13 H          -3.5139   -2.0008   -1.9280 H     1    ESP        -0.0000
     13 H          -3.1003   -2.2218   -1.9280 H     1    ESP        -0.0002
     13 H          -2.6515   -2.3580   -1.9280 H     1    ESP        -0.0003
     13 H          -2.1848   -2.4040   -1.9280 H     1    ESP        -0.0003
     13 H          -1.7180   -2.3580   -1.9280 H     1    ESP        -0.0002
     13 H          -1.2817    1.8637   -2.2633 H     1    ESP        -0.0017
     13 H          -1.7216    2.0176   -2.2633 H     1    ESP        -0.0011
     13 H          -2.1848    2.0698   -2.2633 H     1    ESP        -0.0008
     13 H          -2.6479    2.0176   -2.2633 H     1    ESP        -0.0007
     13 H          -3.0878    1.8637   -2.2633 H     1    ESP        -0.0005
     13 H          -3.4824    1.6157   -2.2633 H     1    ESP        -0.0002
     13 H          -3.8120    1.2861   -2.2633 H     1    ESP         0.0000
     13 H          -4.0600    0.8915   -2.2633 H     1    ESP         0.0003
     13 H          -4.2139    0.4516   -2.2633 H     1    ESP         0.0006
     13 H          -4.2661   -0.0115   -2.2633 H     1    ESP         0.0006
     13 H          -4.2139   -0.4747   -2.2633 H     1    ESP         0.0006
     13 H          -4.0600   -0.9146   -2.2633 H     1    ESP         0.0003
     13 H          -3.8120   -1.3092   -2.2633 H     1    ESP         0.0001
     13 H          -3.4824   -1.6388   -2.2633 H     1    ESP        -0.0002
     13 H          -3.0878   -1.8868   -2.2633 H     1    ESP        -0.0005
     13 H          -2.6479   -2.0407   -2.2633 H     1    ESP        -0.0007
     13 H          -2.1848   -2.0929   -2.2633 H     1    ESP        -0.0008
     13 H          -1.7216   -2.0407   -2.2633 H     1    ESP        -0.0011
     13 H          -1.2817   -1.8868   -2.2633 H     1    ESP        -0.0016
     13 H          -0.7119    0.8841   -2.5484 H     1    ESP        -0.0045
     13 H          -1.0082    1.2482   -2.5484 H     1    ESP        -0.0032
     13 H          -1.3917    1.5190   -2.5484 H     1    ESP        -0.0022
     13 H          -1.8341    1.6762   -2.5484 H     1    ESP        -0.0016
     13 H          -2.3024    1.7082   -2.5484 H     1    ESP        -0.0012
     13 H          -2.7620    1.6127   -2.5484 H     1    ESP        -0.0009
     13 H          -3.1788    1.3967   -2.5484 H     1    ESP        -0.0006
     13 H          -3.5219    1.0763   -2.5484 H     1    ESP        -0.0003
     13 H          -3.7658    0.6752   -2.5484 H     1    ESP        -0.0001
     13 H          -3.8925    0.2232   -2.5484 H     1    ESP         0.0000
     13 H          -3.8925   -0.2463   -2.5484 H     1    ESP         0.0000
     13 H          -3.7658   -0.6983   -2.5484 H     1    ESP        -0.0001
     13 H          -3.5219   -1.0994   -2.5484 H     1    ESP        -0.0003
     13 H          -3.1788   -1.4198   -2.5484 H     1    ESP        -0.0006
     13 H          -2.7620   -1.6358   -2.5484 H     1    ESP        -0.0009
     13 H          -2.3024   -1.7313   -2.5484 H     1    ESP        -0.0011
     13 H          -1.8341   -1.6993   -2.5484 H     1    ESP        -0.0015
     13 H          -1.3917   -1.5420   -2.5484 H     1    ESP        -0.0022
     13 H          -1.0082   -1.2713   -2.5484 H     1    ESP        -0.0032
     13 H          -0.7119   -0.9072   -2.5484 H     1    ESP        -0.0044
     13 H          -0.8571   -0.0115   -2.7771 H     1    ESP        -0.0043
     13 H          -0.9371    0.4425   -2.7771 H     1    ESP        -0.0040
     13 H          -1.1677    0.8419   -2.7771 H     1    ESP        -0.0033
     13 H          -1.5209    1.1383   -2.7771 H     1    ESP        -0.0024
     13 H          -1.9542    1.2960   -2.7771 H     1    ESP        -0.0018
     13 H          -2.4153    1.2960   -2.7771 H     1    ESP        -0.0013
     13 H          -2.8486    1.1383   -2.7771 H     1    ESP        -0.0010
     13 H          -3.2018    0.8419   -2.7771 H     1    ESP        -0.0007
     13 H          -3.4324    0.4425   -2.7771 H     1    ESP        -0.0005
     13 H          -3.5124   -0.0115   -2.7771 H     1    ESP        -0.0004
     13 H          -3.4324   -0.4656   -2.7771 H     1    ESP        -0.0005
     13 H          -3.2018   -0.8650   -2.7771 H     1    ESP        -0.0007
     13 H          -2.8486   -1.1614   -2.7771 H     1    ESP        -0.0010
     13 H          -2.4153   -1.3191   -2.7771 H     1    ESP        -0.0013
     13 H          -1.9542   -1.3191   -2.7771 H     1    ESP        -0.0018
     13 H          -1.5209   -1.1614   -2.7771 H     1    ESP        -0.0024
     13 H          -1.1677   -0.8650   -2.7771 H     1    ESP        -0.0032
     13 H          -0.9371   -0.4656   -2.7771 H     1    ESP        -0.0040
     13 H          -1.2828   -0.0115   -2.9442 H     1    ESP        -0.0032
     13 H          -1.4036    0.4394   -2.9442 H     1    ESP        -0.0029
     13 H          -1.7338    0.7696   -2.9442 H     1    ESP        -0.0023
     13 H          -2.1848    0.8904   -2.9442 H     1    ESP        -0.0017
     13 H          -2.6357    0.7696   -2.9442 H     1    ESP        -0.0013
     13 H          -2.9659    0.4394   -2.9442 H     1    ESP        -0.0010
     13 H          -3.0867   -0.0115   -2.9442 H     1    ESP        -0.0009
     13 H          -2.9659   -0.4625   -2.9442 H     1    ESP        -0.0010
     13 H          -2.6357   -0.7927   -2.9442 H     1    ESP        -0.0013
     13 H          -2.1848   -0.9135   -2.9442 H     1    ESP        -0.0017
     13 H          -1.7338   -0.7927   -2.9442 H     1    ESP        -0.0023
     13 H          -1.4036   -0.4625   -2.9442 H     1    ESP        -0.0029
     13 H          -1.7287   -0.0115   -3.0459 H     1    ESP        -0.0024
     13 H          -1.9567    0.3834   -3.0459 H     1    ESP        -0.0021
     13 H          -2.4128    0.3834   -3.0459 H     1    ESP        -0.0016
     13 H          -2.6408   -0.0115   -3.0459 H     1    ESP        -0.0014
     13 H          -2.4128   -0.4065   -3.0459 H     1    ESP        -0.0016
     13 H          -1.9567   -0.4065   -3.0459 H     1    ESP        -0.0021
     13 H          -2.1848   -0.0115   -3.0801 H     1    ESP        -0.0018
     13 H          -1.0449   -2.5896    1.9698 H     1    ESP         0.0005
     13 H          -0.7233   -2.9112    1.9698 H     1    ESP         0.0011
     13 H          -0.2840   -3.0289    1.9698 H     1    ESP         0.0012
     13 H          -1.3635   -2.8187    1.7440 H     1    ESP         0.0011
     13 H          -1.0491   -3.1635    1.7440 H     1    ESP         0.0017
     13 H          -0.6315   -3.3715    1.7440 H     1    ESP         0.0019
     13 H          -0.1669   -3.4145    1.7440 H     1    ESP         0.0020
     13 H           0.2819   -3.2868    1.7440 H     1    ESP         0.0018
     13 H          -1.6344   -3.0182    1.4418 H     1    ESP         0.0016
     13 H          -1.3352   -3.3634    1.4418 H     1    ESP         0.0021
     13 H          -0.9509   -3.6105    1.4418 H     1    ESP         0.0024
     13 H          -0.5125   -3.7392    1.4418 H     1    ESP         0.0025
     13 H          -0.0556   -3.7392    1.4418 H     1    ESP         0.0026
     13 H           0.3828   -3.6105    1.4418 H     1    ESP         0.0026
     13 H          -1.7974   -3.2498    1.0765 H     1    ESP         0.0021
     13 H          -1.4764   -3.5917    1.0765 H     1    ESP         0.0025
     13 H          -1.0805   -3.8429    1.0765 H     1    ESP         0.0027
     13 H          -0.6346   -3.9878    1.0765 H     1    ESP         0.0029
     13 H          -0.1666   -4.0172    1.0765 H     1    ESP         0.0030
     13 H           0.2940   -3.9294    1.0765 H     1    ESP         0.0031
     13 H           0.7183   -3.7297    1.0765 H     1    ESP         0.0034
     13 H          -2.1349   -3.0416    0.6640 H     1    ESP         0.0019
     13 H          -1.8901   -3.4311    0.6640 H     1    ESP         0.0024
     13 H          -1.5649   -3.7564    0.6640 H     1    ESP         0.0027
     13 H          -1.1754   -4.0012    0.6640 H     1    ESP         0.0029
     13 H          -0.7412   -4.1531    0.6640 H     1    ESP         0.0031
     13 H          -0.2840   -4.2046    0.6640 H     1    ESP         0.0032
     13 H           0.1731   -4.1531    0.6640 H     1    ESP         0.0034
     13 H           0.6073   -4.0012    0.6640 H     1    ESP         0.0037
     13 H          -2.1247   -3.2578    0.2223 H     1    ESP         0.0022
     13 H          -1.8436   -3.6276    0.2223 H     1    ESP         0.0026
     13 H          -1.4896   -3.9283    0.2223 H     1    ESP         0.0029
     13 H          -1.0792   -4.1459    0.2223 H     1    ESP         0.0031
     13 H          -0.6316   -4.2702    0.2223 H     1    ESP         0.0032
     13 H          -0.1677   -4.2953    0.2223 H     1    ESP         0.0034
     13 H           0.2907   -4.2202    0.2223 H     1    ESP         0.0036
     13 H           0.7222   -4.0483    0.2223 H     1    ESP         0.0040
     13 H          -2.1247   -3.2578   -0.2293 H     1    ESP         0.0022
     13 H          -1.8436   -3.6276   -0.2293 H     1    ESP         0.0026
     13 H          -1.4896   -3.9283   -0.2293 H     1    ESP         0.0029
     13 H          -1.0792   -4.1459   -0.2293 H     1    ESP         0.0031
     13 H          -0.6316   -4.2702   -0.2293 H     1    ESP         0.0032
     13 H          -0.1677   -4.2953   -0.2293 H     1    ESP         0.0034
     13 H           0.2907   -4.2202   -0.2293 H     1    ESP         0.0036
     13 H           0.7222   -4.0483   -0.2293 H     1    ESP         0.0040
     13 H          -2.1349   -3.0416   -0.6710 H     1    ESP         0.0019
     13 H          -1.8901   -3.4311   -0.6710 H     1    ESP         0.0024
     13 H          -1.5649   -3.7564   -0.6710 H     1    ESP         0.0027
     13 H          -1.1754   -4.0012   -0.6710 H     1    ESP         0.0029
     13 H          -0.7412   -4.1531   -0.6710 H     1    ESP         0.0031
     13 H          -0.2840   -4.2046   -0.6710 H     1    ESP         0.0032
     13 H           0.1731   -4.1531   -0.6710 H     1    ESP         0.0034
     13 H           0.6073   -4.0012   -0.6710 H     1    ESP         0.0036
     13 H          -1.7974   -3.2498   -1.0835 H     1    ESP         0.0021
     13 H          -1.4764   -3.5917   -1.0835 H     1    ESP         0.0025
     13 H          -1.0805   -3.8429   -1.0835 H     1    ESP         0.0027
     13 H          -0.6346   -3.9878   -1.0835 H     1    ESP         0.0029
     13 H          -0.1666   -4.0172   -1.0835 H     1    ESP         0.0030
     13 H           0.2940   -3.9294   -1.0835 H     1    ESP         0.0031
     13 H           0.7183   -3.7297   -1.0835 H     1    ESP         0.0033
     13 H          -1.6344   -3.0182   -1.4488 H     1    ESP         0.0016
     13 H          -1.3352   -3.3634   -1.4488 H     1    ESP         0.0021
     13 H          -0.9509   -3.6105   -1.4488 H     1    ESP         0.0024
     13 H          -0.5125   -3.7392   -1.4488 H     1    ESP         0.0025
     13 H          -0.0556   -3.7392   -1.4488 H     1    ESP         0.0026
     13 H           0.3828   -3.6105   -1.4488 H     1    ESP         0.0026
     13 H          -1.3635   -2.8187   -1.7510 H     1    ESP         0.0012
     13 H          -1.0491   -3.1635   -1.7510 H     1    ESP         0.0017
     13 H          -0.6315   -3.3715   -1.7510 H     1    ESP         0.0020
     13 H          -0.1669   -3.4145   -1.7510 H     1    ESP         0.0020
     13 H           0.2819   -3.2868   -1.7510 H     1    ESP         0.0018
     13 H          -1.0449   -2.5896   -1.9768 H     1    ESP         0.0005
     13 H          -0.7233   -2.9112   -1.9768 H     1    ESP         0.0011
     13 H          -0.2840   -3.0289   -1.9768 H     1    ESP         0.0012
     13 H           2.2037   -3.0188    1.9921 H     1    ESP         0.0017
     13 H           2.6430   -2.9011    1.9921 H     1    ESP         0.0019
     13 H           2.9646   -2.5795    1.9921 H     1    ESP         0.0018
     13 H           1.8563   -3.3614    1.7663 H     1    ESP         0.0022
     13 H           2.3209   -3.4044    1.7663 H     1    ESP         0.0024
     13 H           2.7697   -3.2768    1.7663 H     1    ESP         0.0025
     13 H           3.1420   -2.9956    1.7663 H     1    ESP         0.0025
     13 H           3.3876   -2.5989    1.7663 H     1    ESP         0.0024
     13 H           3.8089   -2.1402    1.4642 H     1    ESP         0.0028
     13 H           1.5369   -3.6004    1.4642 H     1    ESP         0.0027
     13 H           1.9753   -3.7291    1.4642 H     1    ESP         0.0028
     13 H           2.4322   -3.7291    1.4642 H     1    ESP         0.0029
     13 H           2.8706   -3.6004    1.4642 H     1    ESP         0.0029
     13 H           3.2549   -3.3534    1.4642 H     1    ESP         0.0030
     13 H           3.5541   -3.0081    1.4642 H     1    ESP         0.0029
     13 H           3.7439   -2.5925    1.4642 H     1    ESP         0.0029
     13 H           4.0744   -2.1402    1.0989 H     1    ESP         0.0034
     13 H           1.4073   -3.8328    1.0989 H     1    ESP         0.0032
     13 H           1.8532   -3.9777    1.0989 H     1    ESP         0.0032
     13 H           2.3212   -4.0072    1.0989 H     1    ESP         0.0032
     13 H           2.7818   -3.9193    1.0989 H     1    ESP         0.0032
     13 H           3.2061   -3.7197    1.0989 H     1    ESP         0.0032
     13 H           3.5674   -3.4208    1.0989 H     1    ESP         0.0032
     13 H           3.8430   -3.0414    1.0989 H     1    ESP         0.0032
     13 H           4.0156   -2.6054    1.0989 H     1    ESP         0.0033
     13 H           4.2580   -2.1402    0.6863 H     1    ESP         0.0039
     13 H           1.3124   -3.9911    0.6863 H     1    ESP         0.0037
     13 H           1.7466   -4.1430    0.6863 H     1    ESP         0.0034
     13 H           2.2037   -4.1945    0.6863 H     1    ESP         0.0034
     13 H           2.6609   -4.1430    0.6863 H     1    ESP         0.0034
     13 H           3.0951   -3.9911    0.6863 H     1    ESP         0.0034
     13 H           3.4846   -3.7463    0.6863 H     1    ESP         0.0034
     13 H           3.8098   -3.4211    0.6863 H     1    ESP         0.0034
     13 H           4.0546   -3.0316    0.6863 H     1    ESP         0.0035
     13 H           4.2065   -2.5974    0.6863 H     1    ESP         0.0036
     13 H           4.3519   -2.1402    0.2446 H     1    ESP         0.0042
     13 H           0.9982   -3.9183    0.2446 H     1    ESP         0.0044
     13 H           1.4086   -4.1358    0.2446 H     1    ESP         0.0038
     13 H           1.8562   -4.2601    0.2446 H     1    ESP         0.0035
     13 H           2.3200   -4.2853    0.2446 H     1    ESP         0.0035
     13 H           2.7784   -4.2101    0.2446 H     1    ESP         0.0035
     13 H           3.2100   -4.0382    0.2446 H     1    ESP         0.0035
     13 H           3.5944   -3.7775    0.2446 H     1    ESP         0.0035
     13 H           3.9139   -3.4403    0.2446 H     1    ESP         0.0035
     13 H           4.1534   -3.0422    0.2446 H     1    ESP         0.0036
     13 H           4.3017   -2.6020    0.2446 H     1    ESP         0.0037
     13 H           4.3519   -2.1402   -0.2069 H     1    ESP         0.0042
     13 H           0.9982   -3.9183   -0.2069 H     1    ESP         0.0044
     13 H           1.4086   -4.1358   -0.2069 H     1    ESP         0.0038
     13 H           1.8562   -4.2601   -0.2069 H     1    ESP         0.0035
     13 H           2.3200   -4.2853   -0.2069 H     1    ESP         0.0035
     13 H           2.7784   -4.2101   -0.2069 H     1    ESP         0.0035
     13 H           3.2100   -4.0382   -0.2069 H     1    ESP         0.0035
     13 H           3.5944   -3.7775   -0.2069 H     1    ESP         0.0035
     13 H           3.9139   -3.4403   -0.2069 H     1    ESP         0.0035
     13 H           4.1534   -3.0422   -0.2069 H     1    ESP         0.0036
     13 H           4.3017   -2.6020   -0.2069 H     1    ESP         0.0037
     13 H           4.2580   -2.1402   -0.6486 H     1    ESP         0.0039
     13 H           1.3124   -3.9911   -0.6486 H     1    ESP         0.0037
     13 H           1.7466   -4.1430   -0.6486 H     1    ESP         0.0034
     13 H           2.2037   -4.1945   -0.6486 H     1    ESP         0.0034
     13 H           2.6609   -4.1430   -0.6486 H     1    ESP         0.0034
     13 H           3.0951   -3.9911   -0.6486 H     1    ESP         0.0034
     13 H           3.4846   -3.7463   -0.6486 H     1    ESP         0.0034
     13 H           3.8098   -3.4211   -0.6486 H     1    ESP         0.0034
     13 H           4.0546   -3.0316   -0.6486 H     1    ESP         0.0034
     13 H           4.2065   -2.5974   -0.6486 H     1    ESP         0.0036
     13 H           4.0744   -2.1402   -1.0611 H     1    ESP         0.0034
     13 H           1.4073   -3.8328   -1.0611 H     1    ESP         0.0033
     13 H           1.8532   -3.9777   -1.0611 H     1    ESP         0.0032
     13 H           2.3212   -4.0072   -1.0611 H     1    ESP         0.0032
     13 H           2.7818   -3.9193   -1.0611 H     1    ESP         0.0032
     13 H           3.2061   -3.7197   -1.0611 H     1    ESP         0.0032
     13 H           3.5674   -3.4208   -1.0611 H     1    ESP         0.0032
     13 H           3.8430   -3.0414   -1.0611 H     1    ESP         0.0032
     13 H           4.0156   -2.6054   -1.0611 H     1    ESP         0.0033
     13 H           3.8089   -2.1402   -1.4265 H     1    ESP         0.0028
     13 H           1.5369   -3.6004   -1.4265 H     1    ESP         0.0027
     13 H           1.9753   -3.7291   -1.4265 H     1    ESP         0.0028
     13 H           2.4322   -3.7291   -1.4265 H     1    ESP         0.0029
     13 H           2.8706   -3.6004   -1.4265 H     1    ESP         0.0029
     13 H           3.2549   -3.3534   -1.4265 H     1    ESP         0.0029
     13 H           3.5541   -3.0081   -1.4265 H     1    ESP         0.0029
     13 H           3.7439   -2.5925   -1.4265 H     1    ESP         0.0028
     13 H           1.8563   -3.3614   -1.7286 H     1    ESP         0.0022
     13 H           2.3209   -3.4044   -1.7286 H     1    ESP         0.0024
     13 H           2.7697   -3.2768   -1.7286 H     1    ESP         0.0025
     13 H           3.1420   -2.9956   -1.7286 H     1    ESP         0.0025
     13 H           3.3876   -2.5989   -1.7286 H     1    ESP         0.0024
     13 H           2.2037   -3.0188   -1.9544 H     1    ESP         0.0017
     13 H           2.6430   -2.9011   -1.9544 H     1    ESP         0.0019
     13 H           2.9646   -2.5795   -1.9544 H     1    ESP         0.0018
     13 H           4.3199    0.0182    2.0042 H     1    ESP         0.0020
     13 H           4.2022    0.4575    2.0042 H     1    ESP         0.0019
     13 H           4.2022   -0.4211    2.0042 H     1    ESP         0.0019
     13 H           4.7110    0.0182    1.7784 H     1    ESP         0.0026
     13 H           4.6252    0.4768    1.7784 H     1    ESP         0.0026
     13 H           4.3796    0.8735    1.7784 H     1    ESP         0.0024
     13 H           4.3796   -0.8371    1.7784 H     1    ESP         0.0024
     13 H           4.6252   -0.4404    1.7784 H     1    ESP         0.0026
     13 H           5.0465    0.0182    1.4763 H     1    ESP         0.0030
     13 H           4.9815    0.4704    1.4763 H     1    ESP         0.0030
     13 H           4.7917    0.8860    1.4763 H     1    ESP         0.0030
     13 H           4.4925    1.2313    1.4763 H     1    ESP         0.0029
     13 H           4.1082    1.4783    1.4763 H     1    ESP         0.0028
     13 H           4.1082   -1.4419    1.4763 H     1    ESP         0.0028
     13 H           4.4925   -1.1949    1.4763 H     1    ESP         0.0029
     13 H           4.7917   -0.8496    1.4763 H     1    ESP         0.0029
     13 H           4.9815   -0.4340    1.4763 H     1    ESP         0.0030
     13 H           5.3120    0.0182    1.1110 H     1    ESP         0.0033
     13 H           5.2532    0.4834    1.1110 H     1    ESP         0.0033
     13 H           5.0806    0.9194    1.1110 H     1    ESP         0.0033
     13 H           4.8050    1.2987    1.1110 H     1    ESP         0.0033
     13 H           4.4437    1.5976    1.1110 H     1    ESP         0.0034
     13 H           4.4437   -1.5612    1.1110 H     1    ESP         0.0034
     13 H           4.8050   -1.2623    1.1110 H     1    ESP         0.0033
     13 H           5.0806   -0.8830    1.1110 H     1    ESP         0.0033
     13 H           5.2532   -0.4470    1.1110 H     1    ESP         0.0033
     13 H           5.4956    0.0182    0.6984 H     1    ESP         0.0035
     13 H           5.4441    0.4753    0.6984 H     1    ESP         0.0035
     13 H           5.2922    0.9095    0.6984 H     1    ESP         0.0035
     13 H           5.0474    1.2990    0.6984 H     1    ESP         0.0035
     13 H           4.7222    1.6243    0.6984 H     1    ESP         0.0037
     13 H           4.3327    1.8690    0.6984 H     1    ESP         0.0041
     13 H           4.3327   -1.8326    0.6984 H     1    ESP         0.0041
     13 H           4.7222   -1.5879    0.6984 H     1    ESP         0.0037
     13 H           5.0474   -1.2626    0.6984 H     1    ESP         0.0035
     13 H           5.2922   -0.8731    0.6984 H     1    ESP         0.0035
     13 H           5.4441   -0.4389    0.6984 H     1    ESP         0.0035
     13 H           5.5895    0.0182    0.2567 H     1    ESP         0.0035
     13 H           5.5393    0.4800    0.2567 H     1    ESP         0.0035
     13 H           5.3910    0.9202    0.2567 H     1    ESP         0.0035
     13 H           5.1515    1.3182    0.2567 H     1    ESP         0.0036
     13 H           4.8320    1.6555    0.2567 H     1    ESP         0.0038
     13 H           4.4476    1.9161    0.2567 H     1    ESP         0.0043
     13 H           4.4476   -1.8797    0.2567 H     1    ESP         0.0043
     13 H           4.8320   -1.6191    0.2567 H     1    ESP         0.0038
     13 H           5.1515   -1.2818    0.2567 H     1    ESP         0.0036
     13 H           5.3910   -0.8838    0.2567 H     1    ESP         0.0036
     13 H           5.5393   -0.4436    0.2567 H     1    ESP         0.0035
     13 H           5.5895    0.0182   -0.1948 H     1    ESP         0.0035
     13 H           5.5393    0.4800   -0.1948 H     1    ESP         0.0035
     13 H           5.3910    0.9202   -0.1948 H     1    ESP         0.0035
     13 H           5.1515    1.3182   -0.1948 H     1    ESP         0.0036
     13 H           4.8320    1.6555   -0.1948 H     1    ESP         0.0038
     13 H           4.4476    1.9161   -0.1948 H     1    ESP         0.0043
     13 H           4.4476   -1.8797   -0.1948 H     1    ESP         0.0043
     13 H           4.8320   -1.6191   -0.1948 H     1    ESP         0.0038
     13 H           5.1515   -1.2818   -0.1948 H     1    ESP         0.0036
     13 H           5.3910   -0.8838   -0.1948 H     1    ESP         0.0035
     13 H           5.5393   -0.4436   -0.1948 H     1    ESP         0.0035
     13 H           5.4956    0.0182   -0.6365 H     1    ESP         0.0034
     13 H           5.4441    0.4753   -0.6365 H     1    ESP         0.0034
     13 H           5.2922    0.9095   -0.6365 H     1    ESP         0.0035
     13 H           5.0474    1.2990   -0.6365 H     1    ESP         0.0035
     13 H           4.7222    1.6243   -0.6365 H     1    ESP         0.0037
     13 H           4.3327    1.8690   -0.6365 H     1    ESP         0.0041
     13 H           4.3327   -1.8326   -0.6365 H     1    ESP         0.0041
     13 H           4.7222   -1.5879   -0.6365 H     1    ESP         0.0037
     13 H           5.0474   -1.2626   -0.6365 H     1    ESP         0.0035
     13 H           5.2922   -0.8731   -0.6365 H     1    ESP         0.0035
     13 H           5.4441   -0.4389   -0.6365 H     1    ESP         0.0034
     13 H           5.3120    0.0182   -1.0490 H     1    ESP         0.0033
     13 H           5.2532    0.4834   -1.0490 H     1    ESP         0.0033
     13 H           5.0806    0.9194   -1.0490 H     1    ESP         0.0033
     13 H           4.8050    1.2987   -1.0490 H     1    ESP         0.0033
     13 H           4.4437    1.5976   -1.0490 H     1    ESP         0.0034
     13 H           4.4437   -1.5612   -1.0490 H     1    ESP         0.0034
     13 H           4.8050   -1.2623   -1.0490 H     1    ESP         0.0033
     13 H           5.0806   -0.8830   -1.0490 H     1    ESP         0.0033
     13 H           5.2532   -0.4470   -1.0490 H     1    ESP         0.0033
     13 H           5.0465    0.0182   -1.4144 H     1    ESP         0.0030
     13 H           4.9815    0.4704   -1.4144 H     1    ESP         0.0030
     13 H           4.7917    0.8860   -1.4144 H     1    ESP         0.0029
     13 H           4.4925    1.2313   -1.4144 H     1    ESP         0.0028
     13 H           4.4925   -1.1949   -1.4144 H     1    ESP         0.0028
     13 H           4.7917   -0.8496   -1.4144 H     1    ESP         0.0029
     13 H           4.9815   -0.4340   -1.4144 H     1    ESP         0.0030
     13 H           4.7110    0.0182   -1.7165 H     1    ESP         0.0026
     13 H           4.6252    0.4768   -1.7165 H     1    ESP         0.0025
     13 H           4.3796    0.8735   -1.7165 H     1    ESP         0.0023
     13 H           4.3796   -0.8371   -1.7165 H     1    ESP         0.0023
     13 H           4.6252   -0.4404   -1.7165 H     1    ESP         0.0025
     13 H           4.3199    0.0182   -1.9423 H     1    ESP         0.0020
     13 H           4.2022    0.4575   -1.9423 H     1    ESP         0.0018
     13 H           4.2022   -0.4211   -1.9423 H     1    ESP         0.0018
     13 H           2.9418    2.6027    1.9940 H     1    ESP         0.0018
     13 H           2.6203    2.9243    1.9940 H     1    ESP         0.0019
     13 H           2.1810    3.0420    1.9940 H     1    ESP         0.0018
     13 H           3.3649    2.6221    1.7682 H     1    ESP         0.0024
     13 H           3.1192    3.0188    1.7682 H     1    ESP         0.0025
     13 H           2.7469    3.2999    1.7682 H     1    ESP         0.0025
     13 H           2.2981    3.4276    1.7682 H     1    ESP         0.0024
     13 H           1.8335    3.3846    1.7682 H     1    ESP         0.0022
     13 H           3.7862    2.1634    1.4661 H     1    ESP         0.0028
     13 H           3.7212    2.6157    1.4661 H     1    ESP         0.0029
     13 H           3.5314    3.0312    1.4661 H     1    ESP         0.0029
     13 H           3.2322    3.3765    1.4661 H     1    ESP         0.0030
     13 H           2.8478    3.6236    1.4661 H     1    ESP         0.0029
     13 H           2.4094    3.7523    1.4661 H     1    ESP         0.0029
     13 H           1.9525    3.7523    1.4661 H     1    ESP         0.0028
     13 H           1.5142    3.6236    1.4661 H     1    ESP         0.0027
     13 H           4.0516    2.1634    1.1008 H     1    ESP         0.0035
     13 H           3.9928    2.6286    1.1008 H     1    ESP         0.0033
     13 H           3.8202    3.0646    1.1008 H     1    ESP         0.0032
     13 H           3.5446    3.4439    1.1008 H     1    ESP         0.0032
     13 H           3.1833    3.7428    1.1008 H     1    ESP         0.0032
     13 H           2.7590    3.9425    1.1008 H     1    ESP         0.0032
     13 H           2.2984    4.0303    1.1008 H     1    ESP         0.0032
     13 H           1.8305    4.0009    1.1008 H     1    ESP         0.0032
     13 H           1.3845    3.8560    1.1008 H     1    ESP         0.0032
     13 H           0.9886    3.6048    1.1008 H     1    ESP         0.0035
     13 H           4.2353    2.1634    0.6882 H     1    ESP         0.0040
     13 H           4.1838    2.6205    0.6882 H     1    ESP         0.0036
     13 H           4.0318    3.0547    0.6882 H     1    ESP         0.0035
     13 H           3.7871    3.4442    0.6882 H     1    ESP         0.0034
     13 H           3.4618    3.7695    0.6882 H     1    ESP         0.0034
     13 H           3.0723    4.0143    0.6882 H     1    ESP         0.0034
     13 H           2.6381    4.1662    0.6882 H     1    ESP         0.0034
     13 H           2.1810    4.2177    0.6882 H     1    ESP         0.0034
     13 H           1.7239    4.1662    0.6882 H     1    ESP         0.0034
     13 H           1.2897    4.0143    0.6882 H     1    ESP         0.0037
     13 H           4.3291    2.1634    0.2465 H     1    ESP         0.0042
     13 H           4.2789    2.6252    0.2465 H     1    ESP         0.0038
     13 H           4.1306    3.0654    0.2465 H     1    ESP         0.0036
     13 H           3.8911    3.4634    0.2465 H     1    ESP         0.0035
     13 H           3.5717    3.8007    0.2465 H     1    ESP         0.0035
     13 H           3.1872    4.0613    0.2465 H     1    ESP         0.0035
     13 H           2.7557    4.2333    0.2465 H     1    ESP         0.0035
     13 H           2.2973    4.3084    0.2465 H     1    ESP         0.0035
     13 H           1.8334    4.2833    0.2465 H     1    ESP         0.0035
     13 H           1.3859    4.1590    0.2465 H     1    ESP         0.0037
     13 H           0.9755    3.9414    0.2465 H     1    ESP         0.0044
     13 H           4.3291    2.1634   -0.2050 H     1    ESP         0.0042
     13 H           4.2789    2.6252   -0.2050 H     1    ESP         0.0037
     13 H           4.1306    3.0654   -0.2050 H     1    ESP         0.0036
     13 H           3.8911    3.4634   -0.2050 H     1    ESP         0.0035
     13 H           3.5717    3.8007   -0.2050 H     1    ESP         0.0035
     13 H           3.1872    4.0613   -0.2050 H     1    ESP         0.0035
     13 H           2.7557    4.2333   -0.2050 H     1    ESP         0.0035
     13 H           2.2973    4.3084   -0.2050 H     1    ESP         0.0035
     13 H           1.8334    4.2833   -0.2050 H     1    ESP         0.0035
     13 H           1.3859    4.1590   -0.2050 H     1    ESP         0.0038
     13 H           0.9755    3.9414   -0.2050 H     1    ESP         0.0044
     13 H           4.2353    2.1634   -0.6467 H     1    ESP         0.0039
     13 H           4.1838    2.6205   -0.6467 H     1    ESP         0.0036
     13 H           4.0318    3.0547   -0.6467 H     1    ESP         0.0035
     13 H           3.7871    3.4442   -0.6467 H     1    ESP         0.0034
     13 H           3.4618    3.7695   -0.6467 H     1    ESP         0.0034
     13 H           3.0723    4.0143   -0.6467 H     1    ESP         0.0034
     13 H           2.6381    4.1662   -0.6467 H     1    ESP         0.0034
     13 H           2.1810    4.2177   -0.6467 H     1    ESP         0.0034
     13 H           1.7239    4.1662   -0.6467 H     1    ESP         0.0034
     13 H           1.2897    4.0143   -0.6467 H     1    ESP         0.0037
     13 H           4.0516    2.1634   -1.0592 H     1    ESP         0.0034
     13 H           3.9928    2.6286   -1.0592 H     1    ESP         0.0033
     13 H           3.8202    3.0646   -1.0592 H     1    ESP         0.0032
     13 H           3.5446    3.4439   -1.0592 H     1    ESP         0.0032
     13 H           3.1833    3.7428   -1.0592 H     1    ESP         0.0032
     13 H           2.7590    3.9425   -1.0592 H     1    ESP         0.0032
     13 H           2.2984    4.0303   -1.0592 H     1    ESP         0.0032
     13 H           1.8305    4.0009   -1.0592 H     1    ESP         0.0032
     13 H           1.3845    3.8560   -1.0592 H     1    ESP         0.0033
     13 H           0.9886    3.6048   -1.0592 H     1    ESP         0.0036
     13 H           3.7862    2.1634   -1.4246 H     1    ESP         0.0028
     13 H           3.7212    2.6157   -1.4246 H     1    ESP         0.0028
     13 H           3.5314    3.0312   -1.4246 H     1    ESP         0.0029
     13 H           3.2322    3.3765   -1.4246 H     1    ESP         0.0029
     13 H           2.8478    3.6236   -1.4246 H     1    ESP         0.0029
     13 H           2.4094    3.7523   -1.4246 H     1    ESP         0.0029
     13 H           1.9525    3.7523   -1.4246 H     1    ESP         0.0028
     13 H           1.5142    3.6236   -1.4246 H     1    ESP         0.0027
     13 H           3.3649    2.6221   -1.7267 H     1    ESP         0.0023
     13 H           3.1192    3.0188   -1.7267 H     1    ESP         0.0025
     13 H           2.7469    3.2999   -1.7267 H     1    ESP         0.0025
     13 H           2.2981    3.4276   -1.7267 H     1    ESP         0.0024
     13 H           1.8335    3.3846   -1.7267 H     1    ESP         0.0022
     13 H           2.9418    2.6027   -1.9525 H     1    ESP         0.0018
     13 H           2.6203    2.9243   -1.9525 H     1    ESP         0.0019
     13 H           2.1810    3.0420   -1.9525 H     1    ESP         0.0017
     13 H          -0.3068    3.0257    1.9715 H     1    ESP         0.0012
     13 H          -0.7461    2.9080    1.9715 H     1    ESP         0.0011
     13 H          -1.0676    2.5865    1.9715 H     1    ESP         0.0005
     13 H           0.2591    3.2837    1.7457 H     1    ESP         0.0018
     13 H          -0.1896    3.4114    1.7457 H     1    ESP         0.0020
     13 H          -0.6542    3.3683    1.7457 H     1    ESP         0.0019
     13 H          -1.0719    3.1604    1.7457 H     1    ESP         0.0017
     13 H          -1.3862    2.8156    1.7457 H     1    ESP         0.0012
     13 H           0.3600    3.6073    1.4435 H     1    ESP         0.0026
     13 H          -0.0783    3.7360    1.4435 H     1    ESP         0.0026
     13 H          -0.5352    3.7360    1.4435 H     1    ESP         0.0025
     13 H          -0.9736    3.6073    1.4435 H     1    ESP         0.0024
     13 H          -1.3580    3.3603    1.4435 H     1    ESP         0.0021
     13 H          -1.6572    3.0150    1.4435 H     1    ESP         0.0017
     13 H           0.6955    3.7266    1.0782 H     1    ESP         0.0034
     13 H           0.2713    3.9262    1.0782 H     1    ESP         0.0031
     13 H          -0.1893    4.0141    1.0782 H     1    ESP         0.0030
     13 H          -0.6573    3.9847    1.0782 H     1    ESP         0.0029
     13 H          -1.1032    3.8398    1.0782 H     1    ESP         0.0027
     13 H          -1.4992    3.5885    1.0782 H     1    ESP         0.0025
     13 H          -1.8201    3.2467    1.0782 H     1    ESP         0.0021
     13 H           0.5845    3.9980    0.6657 H     1    ESP         0.0037
     13 H           0.1503    4.1500    0.6657 H     1    ESP         0.0034
     13 H          -0.3068    4.2015    0.6657 H     1    ESP         0.0032
     13 H          -0.7639    4.1500    0.6657 H     1    ESP         0.0031
     13 H          -1.1981    3.9980    0.6657 H     1    ESP         0.0029
     13 H          -1.5876    3.7533    0.6657 H     1    ESP         0.0027
     13 H          -1.9129    3.4280    0.6657 H     1    ESP         0.0024
     13 H          -2.1576    3.0385    0.6657 H     1    ESP         0.0019
     13 H           0.6994    4.0451    0.2240 H     1    ESP         0.0040
     13 H           0.2679    4.2171    0.2240 H     1    ESP         0.0036
     13 H          -0.1905    4.2922    0.2240 H     1    ESP         0.0034
     13 H          -0.6543    4.2671    0.2240 H     1    ESP         0.0032
     13 H          -1.1019    4.1428    0.2240 H     1    ESP         0.0031
     13 H          -1.5123    3.9252    0.2240 H     1    ESP         0.0029
     13 H          -1.8663    3.6245    0.2240 H     1    ESP         0.0026
     13 H          -2.1475    3.2547    0.2240 H     1    ESP         0.0022
     13 H           0.6994    4.0451   -0.2276 H     1    ESP         0.0040
     13 H           0.2679    4.2171   -0.2276 H     1    ESP         0.0036
     13 H          -0.1905    4.2922   -0.2276 H     1    ESP         0.0034
     13 H          -0.6543    4.2671   -0.2276 H     1    ESP         0.0032
     13 H          -1.1019    4.1428   -0.2276 H     1    ESP         0.0031
     13 H          -1.5123    3.9252   -0.2276 H     1    ESP         0.0029
     13 H          -1.8663    3.6245   -0.2276 H     1    ESP         0.0026
     13 H          -2.1475    3.2547   -0.2276 H     1    ESP         0.0022
     13 H           0.5845    3.9980   -0.6693 H     1    ESP         0.0037
     13 H           0.1503    4.1500   -0.6693 H     1    ESP         0.0034
     13 H          -0.3068    4.2015   -0.6693 H     1    ESP         0.0032
     13 H          -0.7639    4.1500   -0.6693 H     1    ESP         0.0031
     13 H          -1.1981    3.9980   -0.6693 H     1    ESP         0.0029
     13 H          -1.5876    3.7533   -0.6693 H     1    ESP         0.0027
     13 H          -1.9129    3.4280   -0.6693 H     1    ESP         0.0024
     13 H          -2.1576    3.0385   -0.6693 H     1    ESP         0.0019
     13 H           0.6955    3.7266   -1.0818 H     1    ESP         0.0033
     13 H           0.2713    3.9262   -1.0818 H     1    ESP         0.0031
     13 H          -0.1893    4.0141   -1.0818 H     1    ESP         0.0030
     13 H          -0.6573    3.9847   -1.0818 H     1    ESP         0.0029
     13 H          -1.1032    3.8398   -1.0818 H     1    ESP         0.0027
     13 H          -1.4992    3.5885   -1.0818 H     1    ESP         0.0025
     13 H          -1.8201    3.2467   -1.0818 H     1    ESP         0.0021
     13 H           0.3600    3.6073   -1.4471 H     1    ESP         0.0026
     13 H          -0.0783    3.7360   -1.4471 H     1    ESP         0.0026
     13 H          -0.5352    3.7360   -1.4471 H     1    ESP         0.0025
     13 H          -0.9736    3.6073   -1.4471 H     1    ESP         0.0024
     13 H          -1.3580    3.3603   -1.4471 H     1    ESP         0.0021
     13 H          -1.6572    3.0150   -1.4471 H     1    ESP         0.0017
     13 H           0.2591    3.2837   -1.7493 H     1    ESP         0.0018
     13 H          -0.1896    3.4114   -1.7493 H     1    ESP         0.0020
     13 H          -0.6542    3.3683   -1.7493 H     1    ESP         0.0020
     13 H          -1.0719    3.1604   -1.7493 H     1    ESP         0.0017
     13 H          -1.3862    2.8156   -1.7493 H     1    ESP         0.0012
     13 H          -0.3068    3.0257   -1.9750 H     1    ESP         0.0012
     13 H          -0.7461    2.9080   -1.9750 H     1    ESP         0.0011
     13 H          -1.0676    2.5865   -1.9750 H     1    ESP         0.0005
     13 H           0.2653   -1.2149    3.0021 H     1    ESP        -0.0032
     13 H           0.7125   -1.2149    2.9686 H     1    ESP        -0.0033
     13 H           0.4889   -0.8277    2.9686 H     1    ESP        -0.0040
     13 H           0.0418   -0.8277    2.9686 H     1    ESP        -0.0039
     13 H          -0.1818   -1.2149    2.9686 H     1    ESP        -0.0031
     13 H           0.0418   -1.6022    2.9686 H     1    ESP        -0.0025
     13 H           0.4889   -1.6022    2.9686 H     1    ESP        -0.0026
     13 H           0.7075   -0.4491    2.8688 H     1    ESP        -0.0048
     13 H          -0.6189   -1.2149    2.8688 H     1    ESP        -0.0031
     13 H          -0.5004   -1.6571    2.8688 H     1    ESP        -0.0023
     13 H          -0.1768   -1.9807    2.8688 H     1    ESP        -0.0018
     13 H           0.2653   -2.0992    2.8688 H     1    ESP        -0.0017
     13 H           0.7075   -1.9807    2.8688 H     1    ESP        -0.0020
     13 H           0.9162   -0.0877    2.7050 H     1    ESP        -0.0057
     13 H          -0.9578   -1.6601    2.7050 H     1    ESP        -0.0022
     13 H          -0.7318   -2.0516    2.7050 H     1    ESP        -0.0015
     13 H          -0.3855   -2.3422    2.7050 H     1    ESP        -0.0011
     13 H           0.0393   -2.4968    2.7050 H     1    ESP        -0.0009
     13 H           0.4914   -2.4968    2.7050 H     1    ESP        -0.0010
     13 H           0.9162   -2.3422    2.7050 H     1    ESP        -0.0013
     13 H          -1.0456   -2.2815    2.4808 H     1    ESP        -0.0009
     13 H          -0.7092   -2.5956    2.4808 H     1    ESP        -0.0004
     13 H          -0.3006   -2.8073    2.4808 H     1    ESP        -0.0002
     13 H           0.1500   -2.9010    2.4808 H     1    ESP        -0.0001
     13 H           0.6092   -2.8696    2.4808 H     1    ESP        -0.0002
     13 H          -1.3300   -2.4872    2.2012 H     1    ESP        -0.0003
     13 H          -1.0069   -2.8103    2.2012 H     1    ESP         0.0003
     13 H          -0.6200   -3.0534    2.2012 H     1    ESP         0.0006
     13 H          -0.1887   -3.2043    2.2012 H     1    ESP         0.0007
     13 H           0.2653   -3.2555    2.2012 H     1    ESP         0.0007
     13 H           0.7194   -3.2043    2.2012 H     1    ESP         0.0006
     13 H           0.2653   -3.5604    1.8725 H     1    ESP         0.0015
     13 H           0.7229   -3.5154    1.8725 H     1    ESP         0.0014
     13 H           0.7165   -3.7735    1.5021 H     1    ESP         0.0021
     13 H           0.7165   -3.7735   -1.4979 H     1    ESP         0.0021
     13 H           0.2653   -3.5604   -1.8684 H     1    ESP         0.0015
     13 H           0.7229   -3.5154   -1.8684 H     1    ESP         0.0014
     13 H          -1.3300   -2.4872   -2.1971 H     1    ESP        -0.0002
     13 H          -1.0069   -2.8103   -2.1971 H     1    ESP         0.0003
     13 H          -0.1887   -3.2043   -2.1971 H     1    ESP         0.0007
     13 H           0.2653   -3.2555   -2.1971 H     1    ESP         0.0007
     13 H           0.7194   -3.2043   -2.1971 H     1    ESP         0.0006
     13 H          -1.0456   -2.2815   -2.4767 H     1    ESP        -0.0009
     13 H          -0.7092   -2.5956   -2.4767 H     1    ESP        -0.0004
     13 H          -0.3006   -2.8073   -2.4767 H     1    ESP        -0.0001
     13 H           0.1500   -2.9010   -2.4767 H     1    ESP        -0.0001
     13 H           0.6092   -2.8696   -2.4767 H     1    ESP        -0.0002
     13 H           0.9162   -0.0877   -2.7008 H     1    ESP        -0.0056
     13 H          -0.7318   -2.0516   -2.7008 H     1    ESP        -0.0015
     13 H          -0.3855   -2.3422   -2.7008 H     1    ESP        -0.0010
     13 H           0.0393   -2.4968   -2.7008 H     1    ESP        -0.0009
     13 H           0.4914   -2.4968   -2.7008 H     1    ESP        -0.0010
     13 H           0.9162   -2.3422   -2.7008 H     1    ESP        -0.0013
     13 H           0.7075   -0.4491   -2.8647 H     1    ESP        -0.0047
     13 H          -0.6189   -1.2149   -2.8647 H     1    ESP        -0.0030
     13 H          -0.5004   -1.6571   -2.8647 H     1    ESP        -0.0023
     13 H          -0.1768   -1.9807   -2.8647 H     1    ESP        -0.0018
     13 H           0.2653   -2.0992   -2.8647 H     1    ESP        -0.0017
     13 H           0.7075   -1.9807   -2.8647 H     1    ESP        -0.0020
     13 H           0.7125   -1.2149   -2.9644 H     1    ESP        -0.0033
     13 H           0.4889   -0.8277   -2.9644 H     1    ESP        -0.0039
     13 H           0.0418   -0.8277   -2.9644 H     1    ESP        -0.0038
     13 H          -0.1818   -1.2149   -2.9644 H     1    ESP        -0.0031
     13 H           0.0418   -1.6022   -2.9644 H     1    ESP        -0.0025
     13 H           0.4889   -1.6022   -2.9644 H     1    ESP        -0.0026
     13 H           0.2653   -1.2149   -2.9979 H     1    ESP        -0.0032
     13 H           1.6611   -1.1989    3.0146 H     1    ESP        -0.0026
     13 H           2.1082   -1.1989    2.9811 H     1    ESP        -0.0021
     13 H           1.8846   -0.8117    2.9811 H     1    ESP        -0.0029
     13 H           1.4375   -0.8117    2.9811 H     1    ESP        -0.0034
     13 H           1.2140   -1.1989    2.9811 H     1    ESP        -0.0031
     13 H           1.4375   -1.5862    2.9811 H     1    ESP        -0.0022
     13 H           1.8846   -1.5862    2.9811 H     1    ESP        -0.0018
     13 H           2.5454   -1.1989    2.8813 H     1    ESP        -0.0015
     13 H           1.2190   -0.4331    2.8813 H     1    ESP        -0.0044
     13 H           1.2190   -1.9647    2.8813 H     1    ESP        -0.0018
     13 H           1.6611   -2.0832    2.8813 H     1    ESP        -0.0012
     13 H           2.1032   -1.9647    2.8813 H     1    ESP        -0.0010
     13 H           2.4269   -1.6411    2.8813 H     1    ESP        -0.0011
     13 H           2.9627   -1.1989    2.7175 H     1    ESP        -0.0009
     13 H           1.0103   -0.0717    2.7175 H     1    ESP        -0.0056
     13 H           1.0103   -2.3262    2.7175 H     1    ESP        -0.0013
     13 H           1.4351   -2.4808    2.7175 H     1    ESP        -0.0007
     13 H           1.8871   -2.4808    2.7175 H     1    ESP        -0.0004
     13 H           2.3119   -2.3262    2.7175 H     1    ESP        -0.0003
     13 H           2.6582   -2.0356    2.7175 H     1    ESP        -0.0003
     13 H           2.8842   -1.6441    2.7175 H     1    ESP        -0.0005
     13 H           1.0952   -2.7913    2.4933 H     1    ESP        -0.0003
     13 H           1.5458   -2.8850    2.4933 H     1    ESP         0.0001
     13 H           2.0049   -2.8536    2.4933 H     1    ESP         0.0004
     13 H           2.4386   -2.6994    2.4933 H     1    ESP         0.0005
     13 H           2.8146   -2.4340    2.4933 H     1    ESP         0.0005
     13 H           3.1050   -2.0770    2.4933 H     1    ESP         0.0004
     13 H           3.2884   -1.6549    2.4933 H     1    ESP         0.0001
     13 H           1.2070   -3.1883    2.2137 H     1    ESP         0.0006
     13 H           1.6611   -3.2395    2.2137 H     1    ESP         0.0009
     13 H           2.1151   -3.1883    2.2137 H     1    ESP         0.0012
     13 H           2.9333   -2.7943    2.2137 H     1    ESP         0.0013
     13 H           3.2564   -2.4712    2.2137 H     1    ESP         0.0012
     13 H           3.4995   -2.0843    2.2137 H     1    ESP         0.0010
     13 H           3.6504   -1.6530    2.2137 H     1    ESP         0.0008
     13 H           1.2035   -3.4994    1.8851 H     1    ESP         0.0014
     13 H           3.8280   -2.0965    1.8851 H     1    ESP         0.0017
     13 H           1.2099   -3.7575    1.5146 H     1    ESP         0.0022
     13 H           4.1025   -2.0875    1.5146 H     1    ESP         0.0024
     13 H           1.2099   -3.7575   -1.4854 H     1    ESP         0.0022
     13 H           4.1025   -2.0875   -1.4854 H     1    ESP         0.0023
     13 H           1.2035   -3.4994   -1.8559 H     1    ESP         0.0015
     13 H           1.6611   -3.5444   -1.8559 H     1    ESP         0.0017
     13 H           3.8280   -2.0965   -1.8559 H     1    ESP         0.0016
     13 H           1.2070   -3.1883   -2.1846 H     1    ESP         0.0006
     13 H           1.6611   -3.2395   -2.1846 H     1    ESP         0.0009
     13 H           2.1151   -3.1883   -2.1846 H     1    ESP         0.0011
     13 H           2.5464   -3.0374   -2.1846 H     1    ESP         0.0013
     13 H           2.9333   -2.7943   -2.1846 H     1    ESP         0.0013
     13 H           3.2564   -2.4712   -2.1846 H     1    ESP         0.0011
     13 H           3.4995   -2.0843   -2.1846 H     1    ESP         0.0010
     13 H           3.6504   -1.6530   -2.1846 H     1    ESP         0.0008
     13 H           1.0952   -2.7913   -2.4641 H     1    ESP        -0.0003
     13 H           1.5458   -2.8850   -2.4641 H     1    ESP         0.0001
     13 H           2.0049   -2.8536   -2.4641 H     1    ESP         0.0003
     13 H           2.4386   -2.6994   -2.4641 H     1    ESP         0.0005
     13 H           2.8146   -2.4340   -2.4641 H     1    ESP         0.0005
     13 H           3.1050   -2.0770   -2.4641 H     1    ESP         0.0003
     13 H           3.2884   -1.6549   -2.4641 H     1    ESP         0.0000
     13 H           2.9627   -1.1989   -2.6883 H     1    ESP        -0.0010
     13 H           1.0103   -0.0717   -2.6883 H     1    ESP        -0.0056
     13 H           1.0103   -2.3262   -2.6883 H     1    ESP        -0.0013
     13 H           1.4351   -2.4808   -2.6883 H     1    ESP        -0.0008
     13 H           1.8871   -2.4808   -2.6883 H     1    ESP        -0.0004
     13 H           2.3119   -2.3262   -2.6883 H     1    ESP        -0.0003
     13 H           2.6582   -2.0356   -2.6883 H     1    ESP        -0.0004
     13 H           2.8842   -1.6441   -2.6883 H     1    ESP        -0.0006
     13 H           2.5454   -1.1989   -2.8521 H     1    ESP        -0.0016
     13 H           1.2190   -0.4331   -2.8521 H     1    ESP        -0.0045
     13 H           1.2190   -1.9647   -2.8521 H     1    ESP        -0.0018
     13 H           1.6611   -2.0832   -2.8521 H     1    ESP        -0.0013
     13 H           2.1032   -1.9647   -2.8521 H     1    ESP        -0.0011
     13 H           2.4269   -1.6411   -2.8521 H     1    ESP        -0.0012
     13 H           2.1082   -1.1989   -2.9519 H     1    ESP        -0.0021
     13 H           1.8846   -0.8117   -2.9519 H     1    ESP        -0.0029
     13 H           1.4375   -0.8117   -2.9519 H     1    ESP        -0.0035
     13 H           1.2140   -1.1989   -2.9519 H     1    ESP        -0.0031
     13 H           1.4375   -1.5862   -2.9519 H     1    ESP        -0.0023
     13 H           1.8846   -1.5862   -2.9519 H     1    ESP        -0.0018
     13 H           1.6611   -1.1989   -2.9854 H     1    ESP        -0.0026
     13 H           2.3553    0.0124    3.0214 H     1    ESP        -0.0024
     13 H           2.8024    0.0124    2.9879 H     1    ESP        -0.0016
     13 H           2.5789    0.3997    2.9879 H     1    ESP        -0.0020
     13 H           2.1317    0.3997    2.9879 H     1    ESP        -0.0028
     13 H           1.9082    0.0124    2.9879 H     1    ESP        -0.0033
     13 H           2.1317   -0.3748    2.9879 H     1    ESP        -0.0028
     13 H           2.5789   -0.3748    2.9879 H     1    ESP        -0.0020
     13 H           3.2396    0.0124    2.8881 H     1    ESP        -0.0009
     13 H           3.1211    0.4546    2.8881 H     1    ESP        -0.0010
     13 H           2.7974    0.7782    2.8881 H     1    ESP        -0.0015
     13 H           1.4710    0.0124    2.8881 H     1    ESP        -0.0043
     13 H           2.7974   -0.7533    2.8881 H     1    ESP        -0.0015
     13 H           3.1211   -0.4297    2.8881 H     1    ESP        -0.0010
     13 H           3.6569    0.0124    2.7243 H     1    ESP        -0.0001
     13 H           3.5785    0.4576    2.7243 H     1    ESP        -0.0002
     13 H           3.3524    0.8491    2.7243 H     1    ESP        -0.0005
     13 H           3.0061    1.1397    2.7243 H     1    ESP        -0.0009
     13 H           1.0536    0.0124    2.7243 H     1    ESP        -0.0055
     13 H           3.0061   -1.1148    2.7243 H     1    ESP        -0.0009
     13 H           3.3524   -0.8242    2.7243 H     1    ESP        -0.0005
     13 H           3.5785   -0.4327    2.7243 H     1    ESP        -0.0002
     13 H           4.0453    0.0124    2.5001 H     1    ESP         0.0006
     13 H           3.9826    0.4684    2.5001 H     1    ESP         0.0006
     13 H           3.7992    0.8905    2.5001 H     1    ESP         0.0004
     13 H           3.5088    1.2475    2.5001 H     1    ESP         0.0001
     13 H           3.5088   -1.2226    2.5001 H     1    ESP         0.0001
     13 H           3.7992   -0.8656    2.5001 H     1    ESP         0.0004
     13 H           3.9826   -0.4435    2.5001 H     1    ESP         0.0006
     13 H           4.3447    0.4665    2.2205 H     1    ESP         0.0014
     13 H           4.1937    0.8978    2.2205 H     1    ESP         0.0012
     13 H           3.9506    1.2847    2.2205 H     1    ESP         0.0010
     13 H           3.9506   -1.2598    2.2205 H     1    ESP         0.0010
     13 H           4.1937   -0.8729    2.2205 H     1    ESP         0.0012
     13 H           4.3447   -0.4416    2.2205 H     1    ESP         0.0014
     13 H           4.3055    1.3155    1.8919 H     1    ESP         0.0018
     13 H           4.0138    1.6710    1.8919 H     1    ESP         0.0016
     13 H           4.0138   -1.6461    1.8919 H     1    ESP         0.0016
     13 H           4.3055   -1.2906    1.8919 H     1    ESP         0.0018
     13 H           4.3455    1.6825    1.5214 H     1    ESP         0.0024
     13 H           4.3455   -1.6576    1.5214 H     1    ESP         0.0024
     13 H           4.3455    1.6825   -1.4786 H     1    ESP         0.0023
     13 H           4.3455   -1.6576   -1.4786 H     1    ESP         0.0023
     13 H           4.3055    1.3155   -1.8491 H     1    ESP         0.0017
     13 H           4.0138    1.6710   -1.8491 H     1    ESP         0.0016
     13 H           4.0138   -1.6461   -1.8491 H     1    ESP         0.0016
     13 H           4.3055   -1.2906   -1.8491 H     1    ESP         0.0017
     13 H           4.3958    0.0124   -2.1778 H     1    ESP         0.0013
     13 H           4.3447    0.4665   -2.1778 H     1    ESP         0.0013
     13 H           4.1937    0.8978   -2.1778 H     1    ESP         0.0011
     13 H           3.9506    1.2847   -2.1778 H     1    ESP         0.0009
     13 H           3.9506   -1.2598   -2.1778 H     1    ESP         0.0009
     13 H           4.1937   -0.8729   -2.1778 H     1    ESP         0.0011
     13 H           4.3447   -0.4416   -2.1778 H     1    ESP         0.0013
     13 H           4.0453    0.0124   -2.4573 H     1    ESP         0.0005
     13 H           3.9826    0.4684   -2.4573 H     1    ESP         0.0005
     13 H           3.7992    0.8905   -2.4573 H     1    ESP         0.0003
     13 H           3.5088    1.2475   -2.4573 H     1    ESP         0.0000
     13 H           3.5088   -1.2226   -2.4573 H     1    ESP         0.0000
     13 H           3.7992   -0.8656   -2.4573 H     1    ESP         0.0003
     13 H           3.9826   -0.4435   -2.4573 H     1    ESP         0.0005
     13 H           3.6569    0.0124   -2.6815 H     1    ESP        -0.0002
     13 H           3.5785    0.4576   -2.6815 H     1    ESP        -0.0003
     13 H           3.3524    0.8491   -2.6815 H     1    ESP        -0.0006
     13 H           3.0061    1.1397   -2.6815 H     1    ESP        -0.0010
     13 H           1.0536    0.0124   -2.6815 H     1    ESP        -0.0057
     13 H           3.0061   -1.1148   -2.6815 H     1    ESP        -0.0010
     13 H           3.3524   -0.8242   -2.6815 H     1    ESP        -0.0006
     13 H           3.5785   -0.4327   -2.6815 H     1    ESP        -0.0003
     13 H           3.2396    0.0124   -2.8453 H     1    ESP        -0.0010
     13 H           3.1211    0.4546   -2.8453 H     1    ESP        -0.0011
     13 H           2.7974    0.7782   -2.8453 H     1    ESP        -0.0016
     13 H           1.4710    0.0124   -2.8453 H     1    ESP        -0.0044
     13 H           2.7974   -0.7533   -2.8453 H     1    ESP        -0.0016
     13 H           3.1211   -0.4297   -2.8453 H     1    ESP        -0.0011
     13 H           2.8024    0.0124   -2.9451 H     1    ESP        -0.0017
     13 H           2.5789    0.3997   -2.9451 H     1    ESP        -0.0021
     13 H           2.1317    0.3997   -2.9451 H     1    ESP        -0.0029
     13 H           1.9082    0.0124   -2.9451 H     1    ESP        -0.0034
     13 H           2.1317   -0.3748   -2.9451 H     1    ESP        -0.0029
     13 H           2.5789   -0.3748   -2.9451 H     1    ESP        -0.0021
     13 H           2.3553    0.0124   -2.9786 H     1    ESP        -0.0025
     13 H           1.6483    1.2164    3.0157 H     1    ESP        -0.0026
     13 H           2.0954    1.2164    2.9822 H     1    ESP        -0.0021
     13 H           1.8719    1.6037    2.9822 H     1    ESP        -0.0018
     13 H           1.4247    1.6037    2.9822 H     1    ESP        -0.0022
     13 H           1.2012    1.2164    2.9822 H     1    ESP        -0.0031
     13 H           1.4247    0.8292    2.9822 H     1    ESP        -0.0034
     13 H           1.8719    0.8292    2.9822 H     1    ESP        -0.0029
     13 H           2.5326    1.2164    2.8824 H     1    ESP        -0.0015
     13 H           2.4141    1.6586    2.8824 H     1    ESP        -0.0011
     13 H           2.0904    1.9822    2.8824 H     1    ESP        -0.0010
     13 H           1.6483    2.1007    2.8824 H     1    ESP        -0.0012
     13 H           1.2062    1.9822    2.8824 H     1    ESP        -0.0018
     13 H           1.2062    0.4506    2.8824 H     1    ESP        -0.0044
     13 H           2.9500    1.2164    2.7186 H     1    ESP        -0.0009
     13 H           2.8715    1.6616    2.7186 H     1    ESP        -0.0005
     13 H           2.6454    2.0531    2.7186 H     1    ESP        -0.0003
     13 H           2.2991    2.3437    2.7186 H     1    ESP        -0.0002
     13 H           1.8743    2.4983    2.7186 H     1    ESP        -0.0004
     13 H           1.4223    2.4983    2.7186 H     1    ESP        -0.0007
     13 H           0.9975    2.3437    2.7186 H     1    ESP        -0.0012
     13 H           0.9975    0.0892    2.7186 H     1    ESP        -0.0056
     13 H           3.2756    1.6724    2.4944 H     1    ESP         0.0001
     13 H           3.0922    2.0945    2.4944 H     1    ESP         0.0004
     13 H           2.8018    2.4515    2.4944 H     1    ESP         0.0005
     13 H           2.4258    2.7169    2.4944 H     1    ESP         0.0005
     13 H           1.9921    2.8711    2.4944 H     1    ESP         0.0004
     13 H           1.5330    2.9025    2.4944 H     1    ESP         0.0001
     13 H           1.0824    2.8088    2.4944 H     1    ESP        -0.0003
     13 H           3.6377    1.6705    2.2148 H     1    ESP         0.0008
     13 H           3.4867    2.1018    2.2148 H     1    ESP         0.0010
     13 H           3.2436    2.4887    2.2148 H     1    ESP         0.0012
     13 H           2.9205    2.8118    2.2148 H     1    ESP         0.0013
     13 H           2.1024    3.2058    2.2148 H     1    ESP         0.0012
     13 H           1.6483    3.2570    2.2148 H     1    ESP         0.0009
     13 H           1.1942    3.2058    2.2148 H     1    ESP         0.0007
     13 H           3.8153    2.1140    1.8861 H     1    ESP         0.0017
     13 H           1.1907    3.5169    1.8861 H     1    ESP         0.0015
     13 H           4.0897    2.1050    1.5157 H     1    ESP         0.0024
     13 H           1.1972    3.7750    1.5157 H     1    ESP         0.0022
     13 H           4.0897    2.1050   -1.4843 H     1    ESP         0.0023
     13 H           1.1972    3.7750   -1.4843 H     1    ESP         0.0022
     13 H           3.8153    2.1140   -1.8548 H     1    ESP         0.0016
     13 H           1.1907    3.5169   -1.8548 H     1    ESP         0.0015
     13 H           3.6377    1.6705   -2.1835 H     1    ESP         0.0007
     13 H           3.4867    2.1018   -2.1835 H     1    ESP         0.0009
     13 H           3.2436    2.4887   -2.1835 H     1    ESP         0.0011
     13 H           2.9205    2.8118   -2.1835 H     1    ESP         0.0013
     13 H           2.5337    3.0549   -2.1835 H     1    ESP         0.0013
     13 H           2.1024    3.2058   -2.1835 H     1    ESP         0.0011
     13 H           1.6483    3.2570   -2.1835 H     1    ESP         0.0009
     13 H           1.1942    3.2058   -2.1835 H     1    ESP         0.0007
     13 H           3.2756    1.6724   -2.4630 H     1    ESP         0.0000
     13 H           3.0922    2.0945   -2.4630 H     1    ESP         0.0003
     13 H           2.8018    2.4515   -2.4630 H     1    ESP         0.0004
     13 H           2.4258    2.7169   -2.4630 H     1    ESP         0.0005
     13 H           1.9921    2.8711   -2.4630 H     1    ESP         0.0003
     13 H           1.5330    2.9025   -2.4630 H     1    ESP         0.0001
     13 H           1.0824    2.8088   -2.4630 H     1    ESP        -0.0003
     13 H           2.9500    1.2164   -2.6872 H     1    ESP        -0.0010
     13 H           2.8715    1.6616   -2.6872 H     1    ESP        -0.0006
     13 H           2.6454    2.0531   -2.6872 H     1    ESP        -0.0004
     13 H           2.2991    2.3437   -2.6872 H     1    ESP        -0.0003
     13 H           1.8743    2.4983   -2.6872 H     1    ESP        -0.0004
     13 H           1.4223    2.4983   -2.6872 H     1    ESP        -0.0008
     13 H           0.9975    2.3437   -2.6872 H     1    ESP        -0.0013
     13 H           0.9975    0.0892   -2.6872 H     1    ESP        -0.0057
     13 H           2.5326    1.2164   -2.8510 H     1    ESP        -0.0016
     13 H           2.4141    1.6586   -2.8510 H     1    ESP        -0.0012
     13 H           2.0904    1.9822   -2.8510 H     1    ESP        -0.0011
     13 H           1.6483    2.1007   -2.8510 H     1    ESP        -0.0013
     13 H           1.2062    1.9822   -2.8510 H     1    ESP        -0.0018
     13 H           1.2062    0.4506   -2.8510 H     1    ESP        -0.0045
     13 H           2.0954    1.2164   -2.9508 H     1    ESP        -0.0021
     13 H           1.8719    1.6037   -2.9508 H     1    ESP        -0.0018
     13 H           1.4247    1.6037   -2.9508 H     1    ESP        -0.0023
     13 H           1.2012    1.2164   -2.9508 H     1    ESP        -0.0031
     13 H           1.4247    0.8292   -2.9508 H     1    ESP        -0.0035
     13 H           1.8719    0.8292   -2.9508 H     1    ESP        -0.0029
     13 H           1.6483    1.2164   -2.9843 H     1    ESP        -0.0026
     13 H           0.2525    1.2177    3.0030 H     1    ESP        -0.0032
     13 H           0.6996    1.2177    2.9695 H     1    ESP        -0.0033
     13 H           0.4760    1.6049    2.9695 H     1    ESP        -0.0026
     13 H           0.0289    1.6049    2.9695 H     1    ESP        -0.0025
     13 H          -0.1946    1.2177    2.9695 H     1    ESP        -0.0031
     13 H           0.0289    0.8304    2.9695 H     1    ESP        -0.0038
     13 H           0.4760    0.8304    2.9695 H     1    ESP        -0.0040
     13 H           0.6946    1.9835    2.8698 H     1    ESP        -0.0020
     13 H           0.2525    2.1019    2.8698 H     1    ESP        -0.0017
     13 H          -0.1896    1.9835    2.8698 H     1    ESP        -0.0018
     13 H          -0.5133    1.6598    2.8698 H     1    ESP        -0.0023
     13 H          -0.6318    1.2177    2.8698 H     1    ESP        -0.0030
     13 H           0.6946    0.4519    2.8698 H     1    ESP        -0.0048
     13 H           0.9033    2.3449    2.7059 H     1    ESP        -0.0013
     13 H           0.4785    2.4995    2.7059 H     1    ESP        -0.0010
     13 H           0.0265    2.4995    2.7059 H     1    ESP        -0.0009
     13 H          -0.3983    2.3449    2.7059 H     1    ESP        -0.0011
     13 H          -0.7446    2.0544    2.7059 H     1    ESP        -0.0015
     13 H          -0.9707    1.6629    2.7059 H     1    ESP        -0.0021
     13 H           0.9033    0.0904    2.7059 H     1    ESP        -0.0057
     13 H           0.5963    2.8723    2.4818 H     1    ESP        -0.0002
     13 H           0.1372    2.9037    2.4818 H     1    ESP        -0.0001
     13 H          -0.3134    2.8101    2.4818 H     1    ESP        -0.0001
     13 H          -0.7221    2.5983    2.4818 H     1    ESP        -0.0004
     13 H          -1.0584    2.2842    2.4818 H     1    ESP        -0.0009
     13 H           0.7065    3.2070    2.2022 H     1    ESP         0.0006
     13 H           0.2525    3.2582    2.2022 H     1    ESP         0.0007
     13 H          -0.2016    3.2070    2.2022 H     1    ESP         0.0007
     13 H          -0.6329    3.0561    2.2022 H     1    ESP         0.0006
     13 H          -1.0198    2.8130    2.2022 H     1    ESP         0.0003
     13 H          -1.3429    2.4899    2.2022 H     1    ESP        -0.0002
     13 H           0.7101    3.5181    1.8735 H     1    ESP         0.0014
     13 H           0.2525    3.5632    1.8735 H     1    ESP         0.0015
     13 H           0.7036    3.7763    1.5030 H     1    ESP         0.0022
     13 H           0.7036    3.7763   -1.4970 H     1    ESP         0.0021
     13 H           0.7101    3.5181   -1.8674 H     1    ESP         0.0014
     13 H           0.2525    3.5632   -1.8674 H     1    ESP         0.0015
     13 H           0.7065    3.2070   -2.1961 H     1    ESP         0.0006
     13 H           0.2525    3.2582   -2.1961 H     1    ESP         0.0007
     13 H          -0.2016    3.2070   -2.1961 H     1    ESP         0.0007
     13 H          -1.0198    2.8130   -2.1961 H     1    ESP         0.0004
     13 H          -1.3429    2.4899   -2.1961 H     1    ESP        -0.0002
     13 H           0.5963    2.8723   -2.4757 H     1    ESP        -0.0002
     13 H           0.1372    2.9037   -2.4757 H     1    ESP        -0.0001
     13 H          -0.3134    2.8101   -2.4757 H     1    ESP        -0.0001
     13 H          -0.7221    2.5983   -2.4757 H     1    ESP        -0.0004
     13 H          -1.0584    2.2842   -2.4757 H     1    ESP        -0.0008
     13 H           0.9033    2.3449   -2.6999 H     1    ESP        -0.0013
     13 H           0.4785    2.4995   -2.6999 H     1    ESP        -0.0010
     13 H           0.0265    2.4995   -2.6999 H     1    ESP        -0.0009
     13 H          -0.3983    2.3449   -2.6999 H     1    ESP        -0.0010
     13 H          -0.7446    2.0544   -2.6999 H     1    ESP        -0.0015
     13 H           0.9033    0.0904   -2.6999 H     1    ESP        -0.0057
     13 H           0.6946    1.9835   -2.8637 H     1    ESP        -0.0020
     13 H           0.2525    2.1019   -2.8637 H     1    ESP        -0.0017
     13 H          -0.1896    1.9835   -2.8637 H     1    ESP        -0.0018
     13 H          -0.5133    1.6598   -2.8637 H     1    ESP        -0.0023
     13 H          -0.6318    1.2177   -2.8637 H     1    ESP        -0.0030
     13 H           0.6946    0.4519   -2.8637 H     1    ESP        -0.0048
     13 H           0.6996    1.2177   -2.9635 H     1    ESP        -0.0033
     13 H           0.4760    1.6049   -2.9635 H     1    ESP        -0.0026
     13 H           0.0289    1.6049   -2.9635 H     1    ESP        -0.0025
     13 H          -0.1946    1.2177   -2.9635 H     1    ESP        -0.0031
     13 H           0.0289    0.8304   -2.9635 H     1    ESP        -0.0038
     13 H           0.4760    0.8304   -2.9635 H     1    ESP        -0.0040
     13 H           0.2525    1.2177   -2.9970 H     1    ESP        -0.0032
     13 H          -0.4236   -0.0022    2.9964 H     1    ESP        -0.0040
     13 H           0.0235   -0.0022    2.9629 H     1    ESP        -0.0045
     13 H          -0.2001    0.3850    2.9629 H     1    ESP        -0.0042
     13 H          -0.2001   -0.3895    2.9629 H     1    ESP        -0.0042
     13 H           0.4606   -0.0022    2.8631 H     1    ESP        -0.0050
     13 H           0.8780   -0.0022    2.6993 H     1    ESP        -0.0057
     13 H           0.8780   -0.0022   -2.7065 H     1    ESP        -0.0056
     13 H           0.4606   -0.0022   -2.8703 H     1    ESP        -0.0049
     13 H           0.0235   -0.0022   -2.9701 H     1    ESP        -0.0044
     13 H          -0.2001    0.3850   -2.9701 H     1    ESP        -0.0041
     13 H          -0.2001   -0.3895   -2.9701 H     1    ESP        -0.0041
     13 H          -0.4236   -0.0022   -3.0036 H     1    ESP        -0.0040
     13 H          -2.1848   -0.0115    3.3799 H     1    ESP        -0.0015
     13 H          -1.7218   -0.0115    3.3482 H     1    ESP        -0.0020
     13 H          -1.9533    0.3894    3.3482 H     1    ESP        -0.0017
     13 H          -2.4162    0.3894    3.3482 H     1    ESP        -0.0013
     13 H          -2.6477   -0.0115    3.3482 H     1    ESP        -0.0012
     13 H          -2.4162   -0.4125    3.3482 H     1    ESP        -0.0013
     13 H          -1.9533   -0.4125    3.3482 H     1    ESP        -0.0017
     13 H          -1.2675   -0.0115    3.2538 H     1    ESP        -0.0026
     13 H          -1.3903    0.4471    3.2538 H     1    ESP        -0.0023
     13 H          -1.7261    0.7829    3.2538 H     1    ESP        -0.0019
     13 H          -2.1848    0.9058    3.2538 H     1    ESP        -0.0014
     13 H          -2.6434    0.7829    3.2538 H     1    ESP        -0.0011
     13 H          -2.9792    0.4471    3.2538 H     1    ESP        -0.0009
     13 H          -3.1021   -0.0115    3.2538 H     1    ESP        -0.0008
     13 H          -2.9792   -0.4702    3.2538 H     1    ESP        -0.0009
     13 H          -2.6434   -0.8060    3.2538 H     1    ESP        -0.0011
     13 H          -2.1848   -0.9289    3.2538 H     1    ESP        -0.0014
     13 H          -1.7261   -0.8060    3.2538 H     1    ESP        -0.0019
     13 H          -1.3903   -0.4702    3.2538 H     1    ESP        -0.0023
     13 H          -0.8302   -0.0115    3.0984 H     1    ESP        -0.0033
     13 H          -0.9119    0.4517    3.0984 H     1    ESP        -0.0031
     13 H          -1.1471    0.8591    3.0984 H     1    ESP        -0.0026
     13 H          -1.5075    1.1615    3.0984 H     1    ESP        -0.0020
     13 H          -1.9495    1.3224    3.0984 H     1    ESP        -0.0015
     13 H          -2.4200    1.3224    3.0984 H     1    ESP        -0.0011
     13 H          -2.8620    1.1615    3.0984 H     1    ESP        -0.0009
     13 H          -3.2224    0.8591    3.0984 H     1    ESP        -0.0007
     13 H          -3.4576    0.4517    3.0984 H     1    ESP        -0.0006
     13 H          -3.5393   -0.0115    3.0984 H     1    ESP        -0.0005
     13 H          -3.4576   -0.4748    3.0984 H     1    ESP        -0.0006
     13 H          -3.2224   -0.8822    3.0984 H     1    ESP        -0.0007
     13 H          -2.8620   -1.1846    3.0984 H     1    ESP        -0.0009
     13 H          -2.4200   -1.3455    3.0984 H     1    ESP        -0.0011
     13 H          -1.9495   -1.3455    3.0984 H     1    ESP        -0.0015
     13 H          -1.5075   -1.1846    3.0984 H     1    ESP        -0.0020
     13 H          -1.1471   -0.8822    3.0984 H     1    ESP        -0.0026
     13 H          -0.9119   -0.4748    3.0984 H     1    ESP        -0.0031
     13 H          -0.6549    0.8717    2.8849 H     1    ESP        -0.0035
     13 H          -0.9356    1.2376    2.8849 H     1    ESP        -0.0027
     13 H          -1.3015    1.5184    2.8849 H     1    ESP        -0.0019
     13 H          -1.7275    1.6948    2.8849 H     1    ESP        -0.0014
     13 H          -2.1848    1.7550    2.8849 H     1    ESP        -0.0011
     13 H          -2.6420    1.6948    2.8849 H     1    ESP        -0.0008
     13 H          -3.0681    1.5184    2.8849 H     1    ESP        -0.0006
     13 H          -3.4339    1.2376    2.8849 H     1    ESP        -0.0005
     13 H          -3.7147    0.8717    2.8849 H     1    ESP        -0.0003
     13 H          -3.8912    0.4457    2.8849 H     1    ESP        -0.0002
     13 H          -3.9513   -0.0115    2.8849 H     1    ESP        -0.0002
     13 H          -3.8912   -0.4688    2.8849 H     1    ESP        -0.0002
     13 H          -3.7147   -0.8948    2.8849 H     1    ESP        -0.0003
     13 H          -3.4339   -1.2607    2.8849 H     1    ESP        -0.0005
     13 H          -3.0681   -1.5415    2.8849 H     1    ESP        -0.0006
     13 H          -2.6420   -1.7179    2.8849 H     1    ESP        -0.0008
     13 H          -2.1848   -1.7781    2.8849 H     1    ESP        -0.0011
     13 H          -1.7275   -1.7179    2.8849 H     1    ESP        -0.0014
     13 H          -1.3015   -1.5415    2.8849 H     1    ESP        -0.0019
     13 H          -0.9356   -1.2607    2.8849 H     1    ESP        -0.0027
     13 H          -0.6549   -0.8948    2.8849 H     1    ESP        -0.0035
     13 H          -1.1797    1.8842    2.6173 H     1    ESP        -0.0016
     13 H          -1.6107    2.0559    2.6173 H     1    ESP        -0.0011
     13 H          -2.0686    2.1310    2.6173 H     1    ESP        -0.0008
     13 H          -2.5319    2.1059    2.6173 H     1    ESP        -0.0007
     13 H          -2.9790    1.9818    2.6173 H     1    ESP        -0.0005
     13 H          -3.3889    1.7644    2.6173 H     1    ESP        -0.0004
     13 H          -3.7425    1.4640    2.6173 H     1    ESP        -0.0002
     13 H          -4.0233    1.0947    2.6173 H     1    ESP        -0.0000
     13 H          -4.2181    0.6736    2.6173 H     1    ESP         0.0001
     13 H          -4.3179    0.2204    2.6173 H     1    ESP         0.0002
     13 H          -4.3179   -0.2435    2.6173 H     1    ESP         0.0002
     13 H          -4.2181   -0.6967    2.6173 H     1    ESP         0.0001
     13 H          -4.0233   -1.1178    2.6173 H     1    ESP        -0.0000
     13 H          -3.7425   -1.4871    2.6173 H     1    ESP        -0.0002
     13 H          -3.3889   -1.7875    2.6173 H     1    ESP        -0.0004
     13 H          -2.9790   -2.0049    2.6173 H     1    ESP        -0.0005
     13 H          -2.5319   -2.1290    2.6173 H     1    ESP        -0.0007
     13 H          -2.0686   -2.1541    2.6173 H     1    ESP        -0.0008
     13 H          -1.6107   -2.0790    2.6173 H     1    ESP        -0.0011
     13 H          -1.1797   -1.9073    2.6173 H     1    ESP        -0.0016
     13 H          -1.5048    2.3784    2.3006 H     1    ESP        -0.0005
     13 H          -1.9555    2.4627    2.3006 H     1    ESP        -0.0004
     13 H          -2.4140    2.4627    2.3006 H     1    ESP        -0.0004
     13 H          -2.8648    2.3784    2.3006 H     1    ESP        -0.0003
     13 H          -3.2924    2.2128    2.3006 H     1    ESP        -0.0003
     13 H          -3.6822    1.9714    2.3006 H     1    ESP        -0.0001
     13 H          -4.0211    1.6625    2.3006 H     1    ESP         0.0000
     13 H          -4.2974    1.2966    2.3006 H     1    ESP         0.0002
     13 H          -4.5018    0.8861    2.3006 H     1    ESP         0.0004
     13 H          -4.6273    0.4450    2.3006 H     1    ESP         0.0005
     13 H          -4.6696   -0.0115    2.3006 H     1    ESP         0.0006
     13 H          -4.6273   -0.4681    2.3006 H     1    ESP         0.0006
     13 H          -4.5018   -0.9092    2.3006 H     1    ESP         0.0004
     13 H          -4.2974   -1.3196    2.3006 H     1    ESP         0.0002
     13 H          -4.0211   -1.6856    2.3006 H     1    ESP         0.0001
     13 H          -3.6822   -1.9945    2.3006 H     1    ESP        -0.0001
     13 H          -3.2924   -2.2359    2.3006 H     1    ESP        -0.0002
     13 H          -2.8648   -2.4015    2.3006 H     1    ESP        -0.0003
     13 H          -2.4140   -2.4858    2.3006 H     1    ESP        -0.0004
     13 H          -1.9555   -2.4858    2.3006 H     1    ESP        -0.0004
     13 H          -1.5048   -2.4015    2.3006 H     1    ESP        -0.0005
     13 H          -1.9554    2.7567    1.9406 H     1    ESP         0.0002
     13 H          -2.4141    2.7567    1.9406 H     1    ESP         0.0000
     13 H          -2.8666    2.6812    1.9406 H     1    ESP        -0.0001
     13 H          -3.3005    2.5322    1.9406 H     1    ESP        -0.0001
     13 H          -3.7040    2.3138    1.9406 H     1    ESP         0.0000
     13 H          -4.0660    2.0321    1.9406 H     1    ESP         0.0002
     13 H          -4.3768    1.6945    1.9406 H     1    ESP         0.0004
     13 H          -4.6277    1.3105    1.9406 H     1    ESP         0.0006
     13 H          -4.8120    0.8904    1.9406 H     1    ESP         0.0008
     13 H          -4.9246    0.4456    1.9406 H     1    ESP         0.0010
     13 H          -4.9625   -0.0115    1.9406 H     1    ESP         0.0011
     13 H          -4.9246   -0.4687    1.9406 H     1    ESP         0.0010
     13 H          -4.8120   -0.9135    1.9406 H     1    ESP         0.0009
     13 H          -4.6277   -1.3336    1.9406 H     1    ESP         0.0006
     13 H          -4.3768   -1.7176    1.9406 H     1    ESP         0.0004
     13 H          -4.0660   -2.0552    1.9406 H     1    ESP         0.0002
     13 H          -3.7040   -2.3369    1.9406 H     1    ESP         0.0000
     13 H          -3.3005   -2.5553    1.9406 H     1    ESP        -0.0001
     13 H          -2.8666   -2.7042    1.9406 H     1    ESP        -0.0001
     13 H          -2.4141   -2.7798    1.9406 H     1    ESP         0.0000
     13 H          -1.9554   -2.7798    1.9406 H     1    ESP         0.0002
     13 H          -2.0691    3.0050    1.5441 H     1    ESP         0.0008
     13 H          -2.5310    2.9873    1.5441 H     1    ESP         0.0004
     13 H          -2.9847    2.8994    1.5441 H     1    ESP         0.0002
     13 H          -3.4197    2.7431    1.5441 H     1    ESP         0.0001
     13 H          -3.8257    2.5223    1.5441 H     1    ESP         0.0002
     13 H          -4.1933    2.2422    1.5441 H     1    ESP         0.0003
     13 H          -4.5137    1.9091    1.5441 H     1    ESP         0.0006
     13 H          -4.7796    1.5311    1.5441 H     1    ESP         0.0009
     13 H          -4.9847    1.1169    1.5441 H     1    ESP         0.0012
     13 H          -5.1242    0.6763    1.5441 H     1    ESP         0.0014
     13 H          -5.1947    0.2195    1.5441 H     1    ESP         0.0016
     13 H          -5.1947   -0.2426    1.5441 H     1    ESP         0.0016
     13 H          -5.1242   -0.6994    1.5441 H     1    ESP         0.0014
     13 H          -4.9847   -1.1400    1.5441 H     1    ESP         0.0012
     13 H          -4.7796   -1.5542    1.5441 H     1    ESP         0.0009
     13 H          -4.5137   -1.9322    1.5441 H     1    ESP         0.0006
     13 H          -4.1933   -2.2652    1.5441 H     1    ESP         0.0004
     13 H          -3.8257   -2.5454    1.5441 H     1    ESP         0.0002
     13 H          -3.4197   -2.7662    1.5441 H     1    ESP         0.0001
     13 H          -2.9847   -2.9224    1.5441 H     1    ESP         0.0002
     13 H          -2.5310   -3.0104    1.5441 H     1    ESP         0.0003
     13 H          -2.0691   -3.0281    1.5441 H     1    ESP         0.0007
     13 H          -2.1848    3.1921    1.1185 H     1    ESP         0.0012
     13 H          -2.6407    3.1595    1.1185 H     1    ESP         0.0006
     13 H          -3.0873    3.0624    1.1185 H     1    ESP         0.0004
     13 H          -3.5156    2.9026    1.1185 H     1    ESP         0.0003
     13 H          -3.9168    2.6836    1.1185 H     1    ESP         0.0003
     13 H          -4.2827    2.4096    1.1185 H     1    ESP         0.0005
     13 H          -4.6059    2.0864    1.1185 H     1    ESP         0.0007
     13 H          -4.8799    1.7205    1.1185 H     1    ESP         0.0010
     13 H          -5.0989    1.3193    1.1185 H     1    ESP         0.0014
     13 H          -5.2587    0.8910    1.1185 H     1    ESP         0.0018
     13 H          -5.3558    0.4444    1.1185 H     1    ESP         0.0020
     13 H          -5.3884   -0.0115    1.1185 H     1    ESP         0.0021
     13 H          -5.3558   -0.4675    1.1185 H     1    ESP         0.0021
     13 H          -5.2587   -0.9141    1.1185 H     1    ESP         0.0018
     13 H          -5.0989   -1.3424    1.1185 H     1    ESP         0.0014
     13 H          -4.8799   -1.7436    1.1185 H     1    ESP         0.0011
     13 H          -4.6059   -2.1095    1.1185 H     1    ESP         0.0007
     13 H          -4.2827   -2.4327    1.1185 H     1    ESP         0.0005
     13 H          -3.9168   -2.7067    1.1185 H     1    ESP         0.0003
     13 H          -3.5156   -2.9257    1.1185 H     1    ESP         0.0003
     13 H          -3.0873   -3.0855    1.1185 H     1    ESP         0.0003
     13 H          -2.6407   -3.1826    1.1185 H     1    ESP         0.0006
     13 H          -2.1848   -3.2152    1.1185 H     1    ESP         0.0012
     13 H          -2.4119    3.3096    0.6716 H     1    ESP         0.0013
     13 H          -2.8620    3.2477    0.6716 H     1    ESP         0.0007
     13 H          -3.2995    3.1251    0.6716 H     1    ESP         0.0004
     13 H          -3.7163    2.9441    0.6716 H     1    ESP         0.0004
     13 H          -4.1045    2.7081    0.6716 H     1    ESP         0.0005
     13 H          -4.4569    2.4213    0.6716 H     1    ESP         0.0006
     13 H          -4.7670    2.0893    0.6716 H     1    ESP         0.0009
     13 H          -5.0290    1.7181    0.6716 H     1    ESP         0.0013
     13 H          -5.2381    1.3147    0.6716 H     1    ESP         0.0017
     13 H          -5.3902    0.8866    0.6716 H     1    ESP         0.0022
     13 H          -5.4826    0.4417    0.6716 H     1    ESP         0.0025
     13 H          -5.5136   -0.0115    0.6716 H     1    ESP         0.0026
     13 H          -5.4826   -0.4648    0.6716 H     1    ESP         0.0025
     13 H          -5.3902   -0.9097    0.6716 H     1    ESP         0.0022
     13 H          -5.2381   -1.3378    0.6716 H     1    ESP         0.0018
     13 H          -5.0290   -1.7412    0.6716 H     1    ESP         0.0014
     13 H          -4.7670   -2.1124    0.6716 H     1    ESP         0.0010
     13 H          -4.4569   -2.4444    0.6716 H     1    ESP         0.0007
     13 H          -4.1045   -2.7311    0.6716 H     1    ESP         0.0005
     13 H          -3.7163   -2.9672    0.6716 H     1    ESP         0.0004
     13 H          -3.2995   -3.1482    0.6716 H     1    ESP         0.0004
     13 H          -2.8620   -3.2708    0.6716 H     1    ESP         0.0007
     13 H          -2.4119   -3.3327    0.6716 H     1    ESP         0.0012
     13 H          -2.4162    3.3726    0.2119 H     1    ESP         0.0014
     13 H          -2.8749    3.3096    0.2119 H     1    ESP         0.0008
     13 H          -3.3207    3.1847    0.2119 H     1    ESP         0.0005
     13 H          -3.7453    3.0002    0.2119 H     1    ESP         0.0004
     13 H          -4.1409    2.7597    0.2119 H     1    ESP         0.0005
     13 H          -4.5000    2.4675    0.2119 H     1    ESP         0.0007
     13 H          -4.8160    2.1291    0.2119 H     1    ESP         0.0010
     13 H          -5.0830    1.7509    0.2119 H     1    ESP         0.0014
     13 H          -5.2960    1.3399    0.2119 H     1    ESP         0.0019
     13 H          -5.4510    0.9036    0.2119 H     1    ESP         0.0024
     13 H          -5.5452    0.4503    0.2119 H     1    ESP         0.0028
     13 H          -5.5768   -0.0115    0.2119 H     1    ESP         0.0029
     13 H          -5.5452   -0.4734    0.2119 H     1    ESP         0.0028
     13 H          -5.4510   -0.9267    0.2119 H     1    ESP         0.0024
     13 H          -5.2960   -1.3630    0.2119 H     1    ESP         0.0020
     13 H          -5.0830   -1.7740    0.2119 H     1    ESP         0.0015
     13 H          -4.8160   -2.1522    0.2119 H     1    ESP         0.0011
     13 H          -4.5000   -2.4906    0.2119 H     1    ESP         0.0007
     13 H          -4.1409   -2.7828    0.2119 H     1    ESP         0.0005
     13 H          -3.7453   -3.0233    0.2119 H     1    ESP         0.0004
     13 H          -3.3207   -3.2078    0.2119 H     1    ESP         0.0005
     13 H          -2.8749   -3.3327    0.2119 H     1    ESP         0.0008
     13 H          -2.4162   -3.3957    0.2119 H     1    ESP         0.0014
     13 H          -2.4162    3.3726   -0.2521 H     1    ESP         0.0014
     13 H          -2.8749    3.3096   -0.2521 H     1    ESP         0.0008
     13 H          -3.3207    3.1847   -0.2521 H     1    ESP         0.0005
     13 H          -3.7453    3.0002   -0.2521 H     1    ESP         0.0004
     13 H          -4.1409    2.7597   -0.2521 H     1    ESP         0.0005
     13 H          -4.5000    2.4675   -0.2521 H     1    ESP         0.0007
     13 H          -4.8160    2.1291   -0.2521 H     1    ESP         0.0010
     13 H          -5.0830    1.7509   -0.2521 H     1    ESP         0.0014
     13 H          -5.2960    1.3399   -0.2521 H     1    ESP         0.0019
     13 H          -5.4510    0.9036   -0.2521 H     1    ESP         0.0024
     13 H          -5.5452    0.4503   -0.2521 H     1    ESP         0.0028
     13 H          -5.5768   -0.0115   -0.2521 H     1    ESP         0.0030
     13 H          -5.5452   -0.4734   -0.2521 H     1    ESP         0.0028
     13 H          -5.4510   -0.9267   -0.2521 H     1    ESP         0.0025
     13 H          -5.2960   -1.3630   -0.2521 H     1    ESP         0.0020
     13 H          -5.0830   -1.7740   -0.2521 H     1    ESP         0.0015
     13 H          -4.8160   -2.1522   -0.2521 H     1    ESP         0.0011
     13 H          -4.5000   -2.4906   -0.2521 H     1    ESP         0.0007
     13 H          -4.1409   -2.7828   -0.2521 H     1    ESP         0.0005
     13 H          -3.7453   -3.0233   -0.2521 H     1    ESP         0.0004
     13 H          -3.3207   -3.2078   -0.2521 H     1    ESP         0.0005
     13 H          -2.8749   -3.3327   -0.2521 H     1    ESP         0.0008
     13 H          -2.4162   -3.3957   -0.2521 H     1    ESP         0.0014
     13 H          -2.4119    3.3096   -0.7119 H     1    ESP         0.0012
     13 H          -2.8620    3.2477   -0.7119 H     1    ESP         0.0007
     13 H          -3.2995    3.1251   -0.7119 H     1    ESP         0.0004
     13 H          -3.7163    2.9441   -0.7119 H     1    ESP         0.0004
     13 H          -4.1045    2.7081   -0.7119 H     1    ESP         0.0005
     13 H          -4.4569    2.4213   -0.7119 H     1    ESP         0.0007
     13 H          -4.7670    2.0893   -0.7119 H     1    ESP         0.0010
     13 H          -5.0290    1.7181   -0.7119 H     1    ESP         0.0013
     13 H          -5.2381    1.3147   -0.7119 H     1    ESP         0.0018
     13 H          -5.3902    0.8866   -0.7119 H     1    ESP         0.0022
     13 H          -5.4826    0.4417   -0.7119 H     1    ESP         0.0025
     13 H          -5.5136   -0.0115   -0.7119 H     1    ESP         0.0027
     13 H          -5.4826   -0.4648   -0.7119 H     1    ESP         0.0026
     13 H          -5.3902   -0.9097   -0.7119 H     1    ESP         0.0022
     13 H          -5.2381   -1.3378   -0.7119 H     1    ESP         0.0018
     13 H          -5.0290   -1.7412   -0.7119 H     1    ESP         0.0014
     13 H          -4.7670   -2.1124   -0.7119 H     1    ESP         0.0010
     13 H          -4.4569   -2.4444   -0.7119 H     1    ESP         0.0007
     13 H          -4.1045   -2.7311   -0.7119 H     1    ESP         0.0005
     13 H          -3.7163   -2.9672   -0.7119 H     1    ESP         0.0004
     13 H          -3.2995   -3.1482   -0.7119 H     1    ESP         0.0004
     13 H          -2.8620   -3.2708   -0.7119 H     1    ESP         0.0006
     13 H          -2.4119   -3.3327   -0.7119 H     1    ESP         0.0012
     13 H          -2.1848    3.1921   -1.1587 H     1    ESP         0.0012
     13 H          -2.6407    3.1595   -1.1587 H     1    ESP         0.0006
     13 H          -3.0873    3.0624   -1.1587 H     1    ESP         0.0004
     13 H          -3.5156    2.9026   -1.1587 H     1    ESP         0.0003
     13 H          -3.9168    2.6836   -1.1587 H     1    ESP         0.0003
     13 H          -4.2827    2.4096   -1.1587 H     1    ESP         0.0005
     13 H          -4.6059    2.0864   -1.1587 H     1    ESP         0.0007
     13 H          -4.8799    1.7205   -1.1587 H     1    ESP         0.0011
     13 H          -5.0989    1.3193   -1.1587 H     1    ESP         0.0015
     13 H          -5.2587    0.8910   -1.1587 H     1    ESP         0.0018
     13 H          -5.3558    0.4444   -1.1587 H     1    ESP         0.0021
     13 H          -5.3884   -0.0115   -1.1587 H     1    ESP         0.0022
     13 H          -5.3558   -0.4675   -1.1587 H     1    ESP         0.0021
     13 H          -5.2587   -0.9141   -1.1587 H     1    ESP         0.0018
     13 H          -5.0989   -1.3424   -1.1587 H     1    ESP         0.0015
     13 H          -4.8799   -1.7436   -1.1587 H     1    ESP         0.0011
     13 H          -4.6059   -2.1095   -1.1587 H     1    ESP         0.0008
     13 H          -4.2827   -2.4327   -1.1587 H     1    ESP         0.0005
     13 H          -3.9168   -2.7067   -1.1587 H     1    ESP         0.0003
     13 H          -3.5156   -2.9257   -1.1587 H     1    ESP         0.0003
     13 H          -3.0873   -3.0855   -1.1587 H     1    ESP         0.0003
     13 H          -2.6407   -3.1826   -1.1587 H     1    ESP         0.0006
     13 H          -2.1848   -3.2152   -1.1587 H     1    ESP         0.0011
     13 H          -2.0691    3.0050   -1.5843 H     1    ESP         0.0007
     13 H          -2.5310    2.9873   -1.5843 H     1    ESP         0.0004
     13 H          -2.9847    2.8994   -1.5843 H     1    ESP         0.0002
     13 H          -3.4197    2.7431   -1.5843 H     1    ESP         0.0001
     13 H          -3.8257    2.5223   -1.5843 H     1    ESP         0.0002
     13 H          -4.1933    2.2422   -1.5843 H     1    ESP         0.0004
     13 H          -4.5137    1.9091   -1.5843 H     1    ESP         0.0006
     13 H          -4.7796    1.5311   -1.5843 H     1    ESP         0.0009
     13 H          -4.9847    1.1169   -1.5843 H     1    ESP         0.0012
     13 H          -5.1242    0.6763   -1.5843 H     1    ESP         0.0015
     13 H          -5.1947    0.2195   -1.5843 H     1    ESP         0.0016
     13 H          -5.1947   -0.2426   -1.5843 H     1    ESP         0.0017
     13 H          -5.1242   -0.6994   -1.5843 H     1    ESP         0.0015
     13 H          -4.9847   -1.1400   -1.5843 H     1    ESP         0.0012
     13 H          -4.7796   -1.5542   -1.5843 H     1    ESP         0.0009
     13 H          -4.5137   -1.9322   -1.5843 H     1    ESP         0.0006
     13 H          -4.1933   -2.2652   -1.5843 H     1    ESP         0.0004
     13 H          -3.8257   -2.5454   -1.5843 H     1    ESP         0.0002
     13 H          -3.4197   -2.7662   -1.5843 H     1    ESP         0.0001
     13 H          -2.9847   -2.9224   -1.5843 H     1    ESP         0.0002
     13 H          -2.5310   -3.0104   -1.5843 H     1    ESP         0.0003
     13 H          -2.0691   -3.0281   -1.5843 H     1    ESP         0.0007
     13 H          -1.9554    2.7567   -1.9808 H     1    ESP         0.0002
     13 H          -2.4141    2.7567   -1.9808 H     1    ESP         0.0000
     13 H          -2.8666    2.6812   -1.9808 H     1    ESP        -0.0001
     13 H          -3.3005    2.5322   -1.9808 H     1    ESP        -0.0001
     13 H          -3.7040    2.3138   -1.9808 H     1    ESP         0.0000
     13 H          -4.0660    2.0321   -1.9808 H     1    ESP         0.0002
     13 H          -4.3768    1.6945   -1.9808 H     1    ESP         0.0004
     13 H          -4.6277    1.3105   -1.9808 H     1    ESP         0.0007
     13 H          -4.8120    0.8904   -1.9808 H     1    ESP         0.0009
     13 H          -4.9246    0.4456   -1.9808 H     1    ESP         0.0011
     13 H          -4.9625   -0.0115   -1.9808 H     1    ESP         0.0011
     13 H          -4.9246   -0.4687   -1.9808 H     1    ESP         0.0011
     13 H          -4.8120   -0.9135   -1.9808 H     1    ESP         0.0009
     13 H          -4.6277   -1.3336   -1.9808 H     1    ESP         0.0007
     13 H          -4.3768   -1.7176   -1.9808 H     1    ESP         0.0004
     13 H          -4.0660   -2.0552   -1.9808 H     1    ESP         0.0002
     13 H          -3.7040   -2.3369   -1.9808 H     1    ESP         0.0001
     13 H          -3.3005   -2.5553   -1.9808 H     1    ESP        -0.0000
     13 H          -2.8666   -2.7042   -1.9808 H     1    ESP        -0.0001
     13 H          -2.4141   -2.7798   -1.9808 H     1    ESP         0.0000
     13 H          -1.9554   -2.7798   -1.9808 H     1    ESP         0.0002
     13 H          -1.5048    2.3784   -2.3408 H     1    ESP        -0.0005
     13 H          -1.9555    2.4627   -2.3408 H     1    ESP        -0.0004
     13 H          -2.4140    2.4627   -2.3408 H     1    ESP        -0.0004
     13 H          -2.8648    2.3784   -2.3408 H     1    ESP        -0.0003
     13 H          -3.2924    2.2128   -2.3408 H     1    ESP        -0.0002
     13 H          -3.6822    1.9714   -2.3408 H     1    ESP        -0.0001
     13 H          -4.0211    1.6625   -2.3408 H     1    ESP         0.0001
     13 H          -4.2974    1.2966   -2.3408 H     1    ESP         0.0003
     13 H          -4.5018    0.8861   -2.3408 H     1    ESP         0.0005
     13 H          -4.6273    0.4450   -2.3408 H     1    ESP         0.0006
     13 H          -4.6696   -0.0115   -2.3408 H     1    ESP         0.0007
     13 H          -4.6273   -0.4681   -2.3408 H     1    ESP         0.0006
     13 H          -4.5018   -0.9092   -2.3408 H     1    ESP         0.0005
     13 H          -4.2974   -1.3196   -2.3408 H     1    ESP         0.0003
     13 H          -4.0211   -1.6856   -2.3408 H     1    ESP         0.0001
     13 H          -3.6822   -1.9945   -2.3408 H     1    ESP        -0.0001
     13 H          -3.2924   -2.2359   -2.3408 H     1    ESP        -0.0002
     13 H          -2.8648   -2.4015   -2.3408 H     1    ESP        -0.0003
     13 H          -2.4140   -2.4858   -2.3408 H     1    ESP        -0.0004
     13 H          -1.9555   -2.4858   -2.3408 H     1    ESP        -0.0004
     13 H          -1.5048   -2.4015   -2.3408 H     1    ESP        -0.0005
     13 H          -1.1797    1.8842   -2.6575 H     1    ESP        -0.0016
     13 H          -1.6107    2.0559   -2.6575 H     1    ESP        -0.0011
     13 H          -2.0686    2.1310   -2.6575 H     1    ESP        -0.0008
     13 H          -2.5319    2.1059   -2.6575 H     1    ESP        -0.0006
     13 H          -2.9790    1.9818   -2.6575 H     1    ESP        -0.0005
     13 H          -3.3889    1.7644   -2.6575 H     1    ESP        -0.0003
     13 H          -3.7425    1.4640   -2.6575 H     1    ESP        -0.0002
     13 H          -4.0233    1.0947   -2.6575 H     1    ESP        -0.0000
     13 H          -4.2181    0.6736   -2.6575 H     1    ESP         0.0001
     13 H          -4.3179    0.2204   -2.6575 H     1    ESP         0.0002
     13 H          -4.3179   -0.2435   -2.6575 H     1    ESP         0.0002
     13 H          -4.2181   -0.6967   -2.6575 H     1    ESP         0.0001
     13 H          -4.0233   -1.1178   -2.6575 H     1    ESP         0.0000
     13 H          -3.7425   -1.4871   -2.6575 H     1    ESP        -0.0002
     13 H          -3.3889   -1.7875   -2.6575 H     1    ESP        -0.0003
     13 H          -2.9790   -2.0049   -2.6575 H     1    ESP        -0.0005
     13 H          -2.5319   -2.1290   -2.6575 H     1    ESP        -0.0006
     13 H          -2.0686   -2.1541   -2.6575 H     1    ESP        -0.0008
     13 H          -1.6107   -2.0790   -2.6575 H     1    ESP        -0.0011
     13 H          -1.1797   -1.9073   -2.6575 H     1    ESP        -0.0015
     13 H          -0.6549    0.8717   -2.9251 H     1    ESP        -0.0034
     13 H          -0.9356    1.2376   -2.9251 H     1    ESP        -0.0026
     13 H          -1.3015    1.5184   -2.9251 H     1    ESP        -0.0019
     13 H          -1.7275    1.6948   -2.9251 H     1    ESP        -0.0014
     13 H          -2.1848    1.7550   -2.9251 H     1    ESP        -0.0010
     13 H          -2.6420    1.6948   -2.9251 H     1    ESP        -0.0008
     13 H          -3.0681    1.5184   -2.9251 H     1    ESP        -0.0006
     13 H          -3.4339    1.2376   -2.9251 H     1    ESP        -0.0004
     13 H          -3.7147    0.8717   -2.9251 H     1    ESP        -0.0003
     13 H          -3.8912    0.4457   -2.9251 H     1    ESP        -0.0002
     13 H          -3.9513   -0.0115   -2.9251 H     1    ESP        -0.0001
     13 H          -3.8912   -0.4688   -2.9251 H     1    ESP        -0.0002
     13 H          -3.7147   -0.8948   -2.9251 H     1    ESP        -0.0003
     13 H          -3.4339   -1.2607   -2.9251 H     1    ESP        -0.0004
     13 H          -3.0681   -1.5415   -2.9251 H     1    ESP        -0.0006
     13 H          -2.6420   -1.7179   -2.9251 H     1    ESP        -0.0008
     13 H          -2.1848   -1.7781   -2.9251 H     1    ESP        -0.0010
     13 H          -1.7275   -1.7179   -2.9251 H     1    ESP        -0.0014
     13 H          -1.3015   -1.5415   -2.9251 H     1    ESP        -0.0019
     13 H          -0.9356   -1.2607   -2.9251 H     1    ESP        -0.0026
     13 H          -0.6549   -0.8948   -2.9251 H     1    ESP        -0.0034
     13 H          -0.8302   -0.0115   -3.1386 H     1    ESP        -0.0032
     13 H          -0.9119    0.4517   -3.1386 H     1    ESP        -0.0030
     13 H          -1.1471    0.8591   -3.1386 H     1    ESP        -0.0025
     13 H          -1.5075    1.1615   -3.1386 H     1    ESP        -0.0019
     13 H          -1.9495    1.3224   -3.1386 H     1    ESP        -0.0014
     13 H          -2.4200    1.3224   -3.1386 H     1    ESP        -0.0011
     13 H          -2.8620    1.1615   -3.1386 H     1    ESP        -0.0008
     13 H          -3.2224    0.8591   -3.1386 H     1    ESP        -0.0006
     13 H          -3.4576    0.4517   -3.1386 H     1    ESP        -0.0005
     13 H          -3.5393   -0.0115   -3.1386 H     1    ESP        -0.0005
     13 H          -3.4576   -0.4748   -3.1386 H     1    ESP        -0.0005
     13 H          -3.2224   -0.8822   -3.1386 H     1    ESP        -0.0006
     13 H          -2.8620   -1.1846   -3.1386 H     1    ESP        -0.0008
     13 H          -2.4200   -1.3455   -3.1386 H     1    ESP        -0.0011
     13 H          -1.9495   -1.3455   -3.1386 H     1    ESP        -0.0014
     13 H          -1.5075   -1.1846   -3.1386 H     1    ESP        -0.0019
     13 H          -1.1471   -0.8822   -3.1386 H     1    ESP        -0.0025
     13 H          -0.9119   -0.4748   -3.1386 H     1    ESP        -0.0030
     13 H          -1.2675   -0.0115   -3.2940 H     1    ESP        -0.0025
     13 H          -1.3903    0.4471   -3.2940 H     1    ESP        -0.0023
     13 H          -1.7261    0.7829   -3.2940 H     1    ESP        -0.0018
     13 H          -2.1848    0.9058   -3.2940 H     1    ESP        -0.0014
     13 H          -2.6434    0.7829   -3.2940 H     1    ESP        -0.0011
     13 H          -2.9792    0.4471   -3.2940 H     1    ESP        -0.0009
     13 H          -3.1021   -0.0115   -3.2940 H     1    ESP        -0.0008
     13 H          -2.9792   -0.4702   -3.2940 H     1    ESP        -0.0009
     13 H          -2.6434   -0.8060   -3.2940 H     1    ESP        -0.0011
     13 H          -2.1848   -0.9289   -3.2940 H     1    ESP        -0.0014
     13 H          -1.7261   -0.8060   -3.2940 H     1    ESP        -0.0018
     13 H          -1.3903   -0.4702   -3.2940 H     1    ESP        -0.0023
     13 H          -1.7218   -0.0115   -3.3885 H     1    ESP        -0.0019
     13 H          -1.9533    0.3894   -3.3885 H     1    ESP        -0.0017
     13 H          -2.4162    0.3894   -3.3885 H     1    ESP        -0.0013
     13 H          -2.6477   -0.0115   -3.3885 H     1    ESP        -0.0011
     13 H          -2.4162   -0.4125   -3.3885 H     1    ESP        -0.0013
     13 H          -1.9533   -0.4125   -3.3885 H     1    ESP        -0.0017
     13 H          -2.1848   -0.0115   -3.4201 H     1    ESP        -0.0015
     13 H          -1.3055   -3.0074    1.9920 H     1    ESP         0.0007
     13 H          -0.9507   -3.3051    1.9920 H     1    ESP         0.0011
     13 H          -0.5156   -3.4634    1.9920 H     1    ESP         0.0012
     13 H          -0.0525   -3.4634    1.9920 H     1    ESP         0.0013
     13 H          -1.6005   -3.2213    1.6936 H     1    ESP         0.0011
     13 H          -1.2627   -3.5368    1.6936 H     1    ESP         0.0014
     13 H          -0.8523   -3.7494    1.6936 H     1    ESP         0.0016
     13 H          -0.3998   -3.8434    1.6936 H     1    ESP         0.0017
     13 H           0.0612   -3.8119    1.6936 H     1    ESP         0.0018
     13 H          -1.9513   -3.2469    1.3299 H     1    ESP         0.0013
     13 H          -1.6534   -3.6018    1.3299 H     1    ESP         0.0016
     13 H          -1.2818   -3.8785    1.3299 H     1    ESP         0.0018
     13 H          -0.8564   -4.0620    1.3299 H     1    ESP         0.0020
     13 H          -0.4001   -4.1425    1.3299 H     1    ESP         0.0021
     13 H           0.0625   -4.1155    1.3299 H     1    ESP         0.0022
     13 H           0.5064   -3.9826    1.3299 H     1    ESP         0.0023
     13 H          -2.0779   -3.4536    0.9149 H     1    ESP         0.0015
     13 H          -1.7677   -3.7981    0.9149 H     1    ESP         0.0018
     13 H          -1.3927   -4.0706    0.9149 H     1    ESP         0.0020
     13 H          -0.9692   -4.2591    0.9149 H     1    ESP         0.0022
     13 H          -0.5158   -4.3555    0.9149 H     1    ESP         0.0023
     13 H          -0.0523   -4.3555    0.9149 H     1    ESP         0.0024
     13 H           0.4012   -4.2591    0.9149 H     1    ESP         0.0026
     13 H           0.8246   -4.0706    0.9149 H     1    ESP         0.0029
     13 H          -2.2412   -3.4581    0.4647 H     1    ESP         0.0016
     13 H          -1.9485   -3.8148    0.4647 H     1    ESP         0.0019
     13 H          -1.5918   -4.1075    0.4647 H     1    ESP         0.0021
     13 H          -1.1848   -4.3250    0.4647 H     1    ESP         0.0022
     13 H          -0.7433   -4.4590    0.4647 H     1    ESP         0.0024
     13 H          -0.2840   -4.5042    0.4647 H     1    ESP         0.0025
     13 H           0.1752   -4.4590    0.4647 H     1    ESP         0.0027
     13 H           0.6168   -4.3250    0.4647 H     1    ESP         0.0029
     13 H          -2.1706   -3.6339   -0.0035 H     1    ESP         0.0018
     13 H          -1.8557   -3.9641   -0.0035 H     1    ESP         0.0020
     13 H          -1.4840   -4.2288   -0.0035 H     1    ESP         0.0022
     13 H          -1.0690   -4.4183   -0.0035 H     1    ESP         0.0023
     13 H          -0.6256   -4.5259   -0.0035 H     1    ESP         0.0024
     13 H          -0.1698   -4.5476   -0.0035 H     1    ESP         0.0026
     13 H           0.2818   -4.4827   -0.0035 H     1    ESP         0.0028
     13 H           0.7130   -4.3334   -0.0035 H     1    ESP         0.0031
     13 H          -2.2412   -3.4581   -0.4717 H     1    ESP         0.0016
     13 H          -1.9485   -3.8148   -0.4717 H     1    ESP         0.0019
     13 H          -1.5918   -4.1075   -0.4717 H     1    ESP         0.0021
     13 H          -1.1848   -4.3250   -0.4717 H     1    ESP         0.0022
     13 H          -0.7433   -4.4590   -0.4717 H     1    ESP         0.0024
     13 H          -0.2840   -4.5042   -0.4717 H     1    ESP         0.0025
     13 H           0.1752   -4.4590   -0.4717 H     1    ESP         0.0026
     13 H           0.6168   -4.3250   -0.4717 H     1    ESP         0.0029
     13 H          -2.0779   -3.4536   -0.9219 H     1    ESP         0.0016
     13 H          -1.7677   -3.7981   -0.9219 H     1    ESP         0.0018
     13 H          -1.3927   -4.0706   -0.9219 H     1    ESP         0.0020
     13 H          -0.9692   -4.2591   -0.9219 H     1    ESP         0.0022
     13 H          -0.5158   -4.3555   -0.9219 H     1    ESP         0.0023
     13 H          -0.0523   -4.3555   -0.9219 H     1    ESP         0.0024
     13 H           0.4012   -4.2591   -0.9219 H     1    ESP         0.0026
     13 H           0.8246   -4.0706   -0.9219 H     1    ESP         0.0029
     13 H          -1.9513   -3.2469   -1.3369 H     1    ESP         0.0013
     13 H          -1.6534   -3.6018   -1.3369 H     1    ESP         0.0016
     13 H          -1.2818   -3.8785   -1.3369 H     1    ESP         0.0018
     13 H          -0.8564   -4.0620   -1.3369 H     1    ESP         0.0020
     13 H          -0.4001   -4.1425   -1.3369 H     1    ESP         0.0021
     13 H           0.0625   -4.1155   -1.3369 H     1    ESP         0.0022
     13 H           0.5064   -3.9826   -1.3369 H     1    ESP         0.0023
     13 H          -1.6005   -3.2213   -1.7006 H     1    ESP         0.0011
     13 H          -1.2627   -3.5368   -1.7006 H     1    ESP         0.0014
     13 H          -0.8523   -3.7494   -1.7006 H     1    ESP         0.0016
     13 H          -0.3998   -3.8434   -1.7006 H     1    ESP         0.0017
     13 H           0.0612   -3.8119   -1.7006 H     1    ESP         0.0018
     13 H          -1.3055   -3.0074   -1.9990 H     1    ESP         0.0008
     13 H          -0.9507   -3.3051   -1.9990 H     1    ESP         0.0011
     13 H          -0.5156   -3.4634   -1.9990 H     1    ESP         0.0012
     13 H          -0.0525   -3.4634   -1.9990 H     1    ESP         0.0013
     13 H           1.9722   -3.4534    2.0144 H     1    ESP         0.0016
     13 H           2.4353   -3.4534    2.0144 H     1    ESP         0.0017
     13 H           2.8704   -3.2950    2.0144 H     1    ESP         0.0018
     13 H           3.2252   -2.9973    2.0144 H     1    ESP         0.0018
     13 H           3.4567   -2.5963    2.0144 H     1    ESP         0.0017
     13 H           1.6354   -3.7393    1.7159 H     1    ESP         0.0019
     13 H           2.0879   -3.8333    1.7159 H     1    ESP         0.0020
     13 H           2.5490   -3.8018    1.7159 H     1    ESP         0.0021
     13 H           2.9845   -3.6470    1.7159 H     1    ESP         0.0021
     13 H           3.3621   -3.3805    1.7159 H     1    ESP         0.0022
     13 H           3.6537   -3.0220    1.7159 H     1    ESP         0.0021
     13 H           3.8379   -2.5981    1.7159 H     1    ESP         0.0021
     13 H           4.1993   -2.1402    1.3522 H     1    ESP         0.0026
     13 H           1.2060   -3.8684    1.3522 H     1    ESP         0.0024
     13 H           1.6314   -4.0519    1.3522 H     1    ESP         0.0024
     13 H           2.0877   -4.1324    1.3522 H     1    ESP         0.0023
     13 H           2.5503   -4.1055    1.3522 H     1    ESP         0.0024
     13 H           2.9941   -3.9726    1.3522 H     1    ESP         0.0024
     13 H           3.3954   -3.7409    1.3522 H     1    ESP         0.0024
     13 H           3.7324   -3.4229    1.3522 H     1    ESP         0.0024
     13 H           3.9870   -3.0358    1.3522 H     1    ESP         0.0024
     13 H           4.1455   -2.6004    1.3522 H     1    ESP         0.0025
     13 H           4.4211   -2.1402    0.9373 H     1    ESP         0.0031
     13 H           1.0951   -4.0605    0.9373 H     1    ESP         0.0029
     13 H           1.5186   -4.2490    0.9373 H     1    ESP         0.0027
     13 H           1.9720   -4.3454    0.9373 H     1    ESP         0.0026
     13 H           2.4355   -4.3454    0.9373 H     1    ESP         0.0025
     13 H           2.8889   -4.2490    0.9373 H     1    ESP         0.0025
     13 H           3.3124   -4.0605    0.9373 H     1    ESP         0.0026
     13 H           3.6874   -3.7880    0.9373 H     1    ESP         0.0026
     13 H           3.9976   -3.4435    0.9373 H     1    ESP         0.0026
     13 H           4.2294   -3.0421    0.9373 H     1    ESP         0.0026
     13 H           4.3726   -2.6012    0.9373 H     1    ESP         0.0028
     13 H           4.5576   -2.1402    0.4871 H     1    ESP         0.0034
     13 H           1.3029   -4.3149    0.4871 H     1    ESP         0.0030
     13 H           1.7445   -4.4489    0.4871 H     1    ESP         0.0027
     13 H           2.2037   -4.4941    0.4871 H     1    ESP         0.0027
     13 H           2.6630   -4.4489    0.4871 H     1    ESP         0.0026
     13 H           3.1045   -4.3149    0.4871 H     1    ESP         0.0026
     13 H           3.5115   -4.0974    0.4871 H     1    ESP         0.0026
     13 H           3.8682   -3.8047    0.4871 H     1    ESP         0.0027
     13 H           4.1609   -3.4480    0.4871 H     1    ESP         0.0027
     13 H           4.3784   -3.0410    0.4871 H     1    ESP         0.0028
     13 H           4.5124   -2.5995    0.4871 H     1    ESP         0.0030
     13 H           4.6037   -2.1402    0.0189 H     1    ESP         0.0035
     13 H           1.0037   -4.2187    0.0189 H     1    ESP         0.0034
     13 H           1.4188   -4.4082    0.0189 H     1    ESP         0.0029
     13 H           1.8622   -4.5158    0.0189 H     1    ESP         0.0028
     13 H           2.3179   -4.5375    0.0189 H     1    ESP         0.0027
     13 H           2.7696   -4.4726    0.0189 H     1    ESP         0.0027
     13 H           3.2007   -4.3234    0.0189 H     1    ESP         0.0027
     13 H           3.5959   -4.0952    0.0189 H     1    ESP         0.0027
     13 H           3.9407   -3.7964    0.0189 H     1    ESP         0.0027
     13 H           4.2227   -3.4378    0.0189 H     1    ESP         0.0027
     13 H           4.4318   -3.0322    0.0189 H     1    ESP         0.0028
     13 H           4.5604   -2.5944    0.0189 H     1    ESP         0.0030
     13 H           4.5576   -2.1402   -0.4494 H     1    ESP         0.0034
     13 H           1.3029   -4.3149   -0.4494 H     1    ESP         0.0030
     13 H           1.7445   -4.4489   -0.4494 H     1    ESP         0.0027
     13 H           2.2037   -4.4941   -0.4494 H     1    ESP         0.0027
     13 H           2.6630   -4.4489   -0.4494 H     1    ESP         0.0026
     13 H           3.1045   -4.3149   -0.4494 H     1    ESP         0.0026
     13 H           3.5115   -4.0974   -0.4494 H     1    ESP         0.0026
     13 H           3.8682   -3.8047   -0.4494 H     1    ESP         0.0027
     13 H           4.1609   -3.4480   -0.4494 H     1    ESP         0.0027
     13 H           4.3784   -3.0410   -0.4494 H     1    ESP         0.0028
     13 H           4.5124   -2.5995   -0.4494 H     1    ESP         0.0030
     13 H           4.4211   -2.1402   -0.8996 H     1    ESP         0.0030
     13 H           1.0951   -4.0605   -0.8996 H     1    ESP         0.0030
     13 H           1.5186   -4.2490   -0.8996 H     1    ESP         0.0027
     13 H           1.9720   -4.3454   -0.8996 H     1    ESP         0.0026
     13 H           2.4355   -4.3454   -0.8996 H     1    ESP         0.0025
     13 H           2.8889   -4.2490   -0.8996 H     1    ESP         0.0025
     13 H           3.3124   -4.0605   -0.8996 H     1    ESP         0.0025
     13 H           3.6874   -3.7880   -0.8996 H     1    ESP         0.0026
     13 H           3.9976   -3.4435   -0.8996 H     1    ESP         0.0026
     13 H           4.2294   -3.0421   -0.8996 H     1    ESP         0.0026
     13 H           4.3726   -2.6012   -0.8996 H     1    ESP         0.0028
     13 H           4.1993   -2.1402   -1.3145 H     1    ESP         0.0026
     13 H           1.2060   -3.8684   -1.3145 H     1    ESP         0.0025
     13 H           1.6314   -4.0519   -1.3145 H     1    ESP         0.0024
     13 H           2.0877   -4.1324   -1.3145 H     1    ESP         0.0023
     13 H           2.5503   -4.1055   -1.3145 H     1    ESP         0.0024
     13 H           2.9941   -3.9726   -1.3145 H     1    ESP         0.0024
     13 H           3.3954   -3.7409   -1.3145 H     1    ESP         0.0024
     13 H           3.7324   -3.4229   -1.3145 H     1    ESP         0.0024
     13 H           3.9870   -3.0358   -1.3145 H     1    ESP         0.0024
     13 H           4.1455   -2.6004   -1.3145 H     1    ESP         0.0024
     13 H           1.6354   -3.7393   -1.6782 H     1    ESP         0.0020
     13 H           2.0879   -3.8333   -1.6782 H     1    ESP         0.0020
     13 H           2.5490   -3.8018   -1.6782 H     1    ESP         0.0021
     13 H           2.9845   -3.6470   -1.6782 H     1    ESP         0.0021
     13 H           3.3621   -3.3805   -1.6782 H     1    ESP         0.0021
     13 H           3.6537   -3.0220   -1.6782 H     1    ESP         0.0021
     13 H           3.8379   -2.5981   -1.6782 H     1    ESP         0.0021
     13 H           1.9722   -3.4534   -1.9767 H     1    ESP         0.0016
     13 H           2.4353   -3.4534   -1.9767 H     1    ESP         0.0017
     13 H           2.8704   -3.2950   -1.9767 H     1    ESP         0.0018
     13 H           3.2252   -2.9973   -1.9767 H     1    ESP         0.0017
     13 H           3.4567   -2.5963   -1.9767 H     1    ESP         0.0016
     13 H           4.7747    0.0182    2.0265 H     1    ESP         0.0019
     13 H           4.6943    0.4742    2.0265 H     1    ESP         0.0018
     13 H           4.4628    0.8753    2.0265 H     1    ESP         0.0017
     13 H           4.4628   -0.8389    2.0265 H     1    ESP         0.0017
     13 H           4.6943   -0.4378    2.0265 H     1    ESP         0.0018
     13 H           5.1384    0.0182    1.7280 H     1    ESP         0.0022
     13 H           5.0755    0.4761    1.7280 H     1    ESP         0.0022
     13 H           4.8913    0.9000    1.7280 H     1    ESP         0.0022
     13 H           4.5997    1.2585    1.7280 H     1    ESP         0.0021
     13 H           4.5997   -1.2221    1.7280 H     1    ESP         0.0021
     13 H           4.8913   -0.8636    1.7280 H     1    ESP         0.0022
     13 H           5.0755   -0.4397    1.7280 H     1    ESP         0.0022
     13 H           5.4369    0.0182    1.3643 H     1    ESP         0.0025
     13 H           5.3831    0.4784    1.3643 H     1    ESP         0.0025
     13 H           5.2246    0.9138    1.3643 H     1    ESP         0.0025
     13 H           4.9700    1.3009    1.3643 H     1    ESP         0.0025
     13 H           4.6330    1.6189    1.3643 H     1    ESP         0.0025
     13 H           4.6330   -1.5825    1.3643 H     1    ESP         0.0025
     13 H           4.9700   -1.2645    1.3643 H     1    ESP         0.0025
     13 H           5.2246   -0.8774    1.3643 H     1    ESP         0.0025
     13 H           5.3831   -0.4420    1.3643 H     1    ESP         0.0025
     13 H           5.6587    0.0182    0.9494 H     1    ESP         0.0026
     13 H           5.6102    0.4792    0.9494 H     1    ESP         0.0026
     13 H           5.4670    0.9201    0.9494 H     1    ESP         0.0026
     13 H           5.2352    1.3215    0.9494 H     1    ESP         0.0027
     13 H           4.9250    1.6660    0.9494 H     1    ESP         0.0028
     13 H           4.5500    1.9384    0.9494 H     1    ESP         0.0031
     13 H           4.5500   -1.9020    0.9494 H     1    ESP         0.0031
     13 H           4.9250   -1.6296    0.9494 H     1    ESP         0.0028
     13 H           5.2352   -1.2851    0.9494 H     1    ESP         0.0027
     13 H           5.4670   -0.8837    0.9494 H     1    ESP         0.0026
     13 H           5.6102   -0.4428    0.9494 H     1    ESP         0.0026
     13 H           5.7952    0.0182    0.4992 H     1    ESP         0.0027
     13 H           5.7500    0.4774    0.4992 H     1    ESP         0.0027
     13 H           5.6161    0.9190    0.4992 H     1    ESP         0.0027
     13 H           5.3985    1.3259    0.4992 H     1    ESP         0.0028
     13 H           5.1058    1.6826    0.4992 H     1    ESP         0.0029
     13 H           4.7491    1.9754    0.4992 H     1    ESP         0.0032
     13 H           4.7491   -1.9390    0.4992 H     1    ESP         0.0032
     13 H           5.1058   -1.6462    0.4992 H     1    ESP         0.0029
     13 H           5.3985   -1.2895    0.4992 H     1    ESP         0.0028
     13 H           5.6161   -0.8826    0.4992 H     1    ESP         0.0027
     13 H           5.7500   -0.4410    0.4992 H     1    ESP         0.0027
     13 H           5.8413    0.0182    0.0310 H     1    ESP         0.0027
     13 H           5.7980    0.4724    0.0310 H     1    ESP         0.0027
     13 H           5.6694    0.9102    0.0310 H     1    ESP         0.0028
     13 H           5.4604    1.3157    0.0310 H     1    ESP         0.0028
     13 H           5.1783    1.6744    0.0310 H     1    ESP         0.0029
     13 H           4.8335    1.9732    0.0310 H     1    ESP         0.0032
     13 H           4.8335   -1.9368    0.0310 H     1    ESP         0.0032
     13 H           5.1783   -1.6380    0.0310 H     1    ESP         0.0029
     13 H           5.4604   -1.2793    0.0310 H     1    ESP         0.0028
     13 H           5.6694   -0.8738    0.0310 H     1    ESP         0.0028
     13 H           5.7980   -0.4360    0.0310 H     1    ESP         0.0027
     13 H           5.7952    0.0182   -0.4372 H     1    ESP         0.0027
     13 H           5.7500    0.4774   -0.4372 H     1    ESP         0.0027
     13 H           5.6161    0.9190   -0.4372 H     1    ESP         0.0027
     13 H           5.3985    1.3259   -0.4372 H     1    ESP         0.0028
     13 H           5.1058    1.6826   -0.4372 H     1    ESP         0.0029
     13 H           4.7491    1.9754   -0.4372 H     1    ESP         0.0032
     13 H           4.7491   -1.9390   -0.4372 H     1    ESP         0.0032
     13 H           5.1058   -1.6462   -0.4372 H     1    ESP         0.0029
     13 H           5.3985   -1.2895   -0.4372 H     1    ESP         0.0028
     13 H           5.6161   -0.8826   -0.4372 H     1    ESP         0.0027
     13 H           5.7500   -0.4410   -0.4372 H     1    ESP         0.0027
     13 H           5.6587    0.0182   -0.8875 H     1    ESP         0.0026
     13 H           5.6102    0.4792   -0.8875 H     1    ESP         0.0026
     13 H           5.4670    0.9201   -0.8875 H     1    ESP         0.0026
     13 H           5.2352    1.3215   -0.8875 H     1    ESP         0.0027
     13 H           4.9250    1.6660   -0.8875 H     1    ESP         0.0028
     13 H           4.5500    1.9384   -0.8875 H     1    ESP         0.0031
     13 H           4.5500   -1.9020   -0.8875 H     1    ESP         0.0031
     13 H           4.9250   -1.6296   -0.8875 H     1    ESP         0.0028
     13 H           5.2352   -1.2851   -0.8875 H     1    ESP         0.0027
     13 H           5.4670   -0.8837   -0.8875 H     1    ESP         0.0026
     13 H           5.6102   -0.4428   -0.8875 H     1    ESP         0.0026
     13 H           5.4369    0.0182   -1.3024 H     1    ESP         0.0024
     13 H           5.3831    0.4784   -1.3024 H     1    ESP         0.0024
     13 H           5.2246    0.9138   -1.3024 H     1    ESP         0.0024
     13 H           4.9700    1.3009   -1.3024 H     1    ESP         0.0024
     13 H           4.6330    1.6189   -1.3024 H     1    ESP         0.0025
     13 H           4.6330   -1.5825   -1.3024 H     1    ESP         0.0025
     13 H           4.9700   -1.2645   -1.3024 H     1    ESP         0.0024
     13 H           5.2246   -0.8774   -1.3024 H     1    ESP         0.0024
     13 H           5.3831   -0.4420   -1.3024 H     1    ESP         0.0024
     13 H           5.1384    0.0182   -1.6661 H     1    ESP         0.0022
     13 H           5.0755    0.4761   -1.6661 H     1    ESP         0.0022
     13 H           4.8913    0.9000   -1.6661 H     1    ESP         0.0021
     13 H           4.5997    1.2585   -1.6661 H     1    ESP         0.0021
     13 H           4.5997   -1.2221   -1.6661 H     1    ESP         0.0021
     13 H           4.8913   -0.8636   -1.6661 H     1    ESP         0.0021
     13 H           5.0755   -0.4397   -1.6661 H     1    ESP         0.0022
     13 H           4.7747    0.0182   -1.9646 H     1    ESP         0.0018
     13 H           4.6943    0.4742   -1.9646 H     1    ESP         0.0018
     13 H           4.4628    0.8753   -1.9646 H     1    ESP         0.0017
     13 H           4.4628   -0.8389   -1.9646 H     1    ESP         0.0017
     13 H           4.6943   -0.4378   -1.9646 H     1    ESP         0.0018
     13 H           3.4339    2.6195    2.0163 H     1    ESP         0.0017
     13 H           3.2024    3.0205    2.0163 H     1    ESP         0.0018
     13 H           2.8477    3.3181    2.0163 H     1    ESP         0.0018
     13 H           2.4125    3.4765    2.0163 H     1    ESP         0.0017
     13 H           1.9494    3.4765    2.0163 H     1    ESP         0.0016
     13 H           3.8151    2.6213    1.7178 H     1    ESP         0.0021
     13 H           3.6310    3.0452    1.7178 H     1    ESP         0.0021
     13 H           3.3393    3.4037    1.7178 H     1    ESP         0.0022
     13 H           2.9617    3.6702    1.7178 H     1    ESP         0.0021
     13 H           2.5263    3.8250    1.7178 H     1    ESP         0.0021
     13 H           2.0652    3.8565    1.7178 H     1    ESP         0.0020
     13 H           1.6127    3.7625    1.7178 H     1    ESP         0.0020
     13 H           4.1765    2.1634    1.3541 H     1    ESP         0.0026
     13 H           4.1227    2.6236    1.3541 H     1    ESP         0.0025
     13 H           3.9642    3.0590    1.3541 H     1    ESP         0.0024
     13 H           3.7096    3.4461    1.3541 H     1    ESP         0.0024
     13 H           3.3726    3.7641    1.3541 H     1    ESP         0.0024
     13 H           2.9714    3.9957    1.3541 H     1    ESP         0.0024
     13 H           2.5275    4.1286    1.3541 H     1    ESP         0.0024
     13 H           2.0650    4.1556    1.3541 H     1    ESP         0.0023
     13 H           1.6087    4.0751    1.3541 H     1    ESP         0.0024
     13 H           1.1832    3.8916    1.3541 H     1    ESP         0.0024
     13 H           4.3983    2.1634    0.9392 H     1    ESP         0.0031
     13 H           4.3498    2.6244    0.9392 H     1    ESP         0.0028
     13 H           4.2066    3.0653    0.9392 H     1    ESP         0.0027
     13 H           3.9748    3.4667    0.9392 H     1    ESP         0.0026
     13 H           3.6647    3.8112    0.9392 H     1    ESP         0.0026
     13 H           3.2896    4.0837    0.9392 H     1    ESP         0.0026
     13 H           2.8662    4.2722    0.9392 H     1    ESP         0.0025
     13 H           2.4128    4.3686    0.9392 H     1    ESP         0.0025
     13 H           1.9492    4.3686    0.9392 H     1    ESP         0.0026
     13 H           1.4958    4.2722    0.9392 H     1    ESP         0.0027
     13 H           1.0723    4.0837    0.9392 H     1    ESP         0.0029
     13 H           4.5349    2.1634    0.4890 H     1    ESP         0.0034
     13 H           4.4896    2.6226    0.4890 H     1    ESP         0.0030
     13 H           4.3557    3.0642    0.4890 H     1    ESP         0.0028
     13 H           4.1382    3.4712    0.4890 H     1    ESP         0.0027
     13 H           3.8454    3.8279    0.4890 H     1    ESP         0.0027
     13 H           3.4887    4.1206    0.4890 H     1    ESP         0.0026
     13 H           3.0818    4.3381    0.4890 H     1    ESP         0.0026
     13 H           2.6402    4.4721    0.4890 H     1    ESP         0.0026
     13 H           2.1810    4.5173    0.4890 H     1    ESP         0.0027
     13 H           1.7218    4.4721    0.4890 H     1    ESP         0.0027
     13 H           1.2802    4.3381    0.4890 H     1    ESP         0.0030
     13 H           4.5810    2.1634    0.0208 H     1    ESP         0.0035
     13 H           4.5376    2.6176    0.0208 H     1    ESP         0.0031
     13 H           4.4091    3.0554    0.0208 H     1    ESP         0.0028
     13 H           4.2000    3.4610    0.0208 H     1    ESP         0.0027
     13 H           3.9179    3.8196    0.0208 H     1    ESP         0.0027
     13 H           3.5731    4.1184    0.0208 H     1    ESP         0.0027
     13 H           3.1780    4.3465    0.0208 H     1    ESP         0.0027
     13 H           2.7468    4.4958    0.0208 H     1    ESP         0.0027
     13 H           2.2952    4.5607    0.0208 H     1    ESP         0.0027
     13 H           1.8394    4.5390    0.0208 H     1    ESP         0.0028
     13 H           1.3960    4.4314    0.0208 H     1    ESP         0.0029
     13 H           0.9810    4.2419    0.0208 H     1    ESP         0.0034
     13 H           4.5349    2.1634   -0.4475 H     1    ESP         0.0034
     13 H           4.4896    2.6226   -0.4475 H     1    ESP         0.0030
     13 H           4.3557    3.0642   -0.4475 H     1    ESP         0.0028
     13 H           4.1382    3.4712   -0.4475 H     1    ESP         0.0027
     13 H           3.8454    3.8279   -0.4475 H     1    ESP         0.0027
     13 H           3.4887    4.1206   -0.4475 H     1    ESP         0.0026
     13 H           3.0818    4.3381   -0.4475 H     1    ESP         0.0026
     13 H           2.6402    4.4721   -0.4475 H     1    ESP         0.0026
     13 H           2.1810    4.5173   -0.4475 H     1    ESP         0.0027
     13 H           1.7218    4.4721   -0.4475 H     1    ESP         0.0027
     13 H           1.2802    4.3381   -0.4475 H     1    ESP         0.0030
     13 H           4.3983    2.1634   -0.8977 H     1    ESP         0.0031
     13 H           4.3498    2.6244   -0.8977 H     1    ESP         0.0028
     13 H           4.2066    3.0653   -0.8977 H     1    ESP         0.0026
     13 H           3.9748    3.4667   -0.8977 H     1    ESP         0.0026
     13 H           3.6647    3.8112   -0.8977 H     1    ESP         0.0026
     13 H           3.2896    4.0837   -0.8977 H     1    ESP         0.0025
     13 H           2.8662    4.2722   -0.8977 H     1    ESP         0.0025
     13 H           2.4128    4.3686   -0.8977 H     1    ESP         0.0025
     13 H           1.9492    4.3686   -0.8977 H     1    ESP         0.0026
     13 H           1.4958    4.2722   -0.8977 H     1    ESP         0.0027
     13 H           1.0723    4.0837   -0.8977 H     1    ESP         0.0029
     13 H           4.1765    2.1634   -1.3126 H     1    ESP         0.0026
     13 H           4.1227    2.6236   -1.3126 H     1    ESP         0.0025
     13 H           3.9642    3.0590   -1.3126 H     1    ESP         0.0024
     13 H           3.7096    3.4461   -1.3126 H     1    ESP         0.0024
     13 H           3.3726    3.7641   -1.3126 H     1    ESP         0.0024
     13 H           2.9714    3.9957   -1.3126 H     1    ESP         0.0024
     13 H           2.5275    4.1286   -1.3126 H     1    ESP         0.0024
     13 H           2.0650    4.1556   -1.3126 H     1    ESP         0.0023
     13 H           1.6087    4.0751   -1.3126 H     1    ESP         0.0024
     13 H           1.1832    3.8916   -1.3126 H     1    ESP         0.0025
     13 H           3.8151    2.6213   -1.6763 H     1    ESP         0.0021
     13 H           3.6310    3.0452   -1.6763 H     1    ESP         0.0021
     13 H           3.3393    3.4037   -1.6763 H     1    ESP         0.0021
     13 H           2.9617    3.6702   -1.6763 H     1    ESP         0.0021
     13 H           2.5263    3.8250   -1.6763 H     1    ESP         0.0021
     13 H           2.0652    3.8565   -1.6763 H     1    ESP         0.0020
     13 H           1.6127    3.7625   -1.6763 H     1    ESP         0.0020
     13 H           3.4339    2.6195   -1.9748 H     1    ESP         0.0016
     13 H           3.2024    3.0205   -1.9748 H     1    ESP         0.0017
     13 H           2.8477    3.3181   -1.9748 H     1    ESP         0.0018
     13 H           2.4125    3.4765   -1.9748 H     1    ESP         0.0017
     13 H           1.9494    3.4765   -1.9748 H     1    ESP         0.0016
     13 H          -0.0752    3.4603    1.9937 H     1    ESP         0.0013
     13 H          -0.5383    3.4603    1.9937 H     1    ESP         0.0012
     13 H          -0.9735    3.3019    1.9937 H     1    ESP         0.0011
     13 H          -1.3282    3.0043    1.9937 H     1    ESP         0.0008
     13 H           0.0385    3.8087    1.6953 H     1    ESP         0.0018
     13 H          -0.4226    3.8403    1.6953 H     1    ESP         0.0017
     13 H          -0.8751    3.7463    1.6953 H     1    ESP         0.0016
     13 H          -1.2854    3.5336    1.6953 H     1    ESP         0.0014
     13 H          -1.6232    3.2182    1.6953 H     1    ESP         0.0011
     13 H           0.4836    3.9795    1.3316 H     1    ESP         0.0023
     13 H           0.0397    4.1124    1.3316 H     1    ESP         0.0022
     13 H          -0.4228    4.1393    1.3316 H     1    ESP         0.0021
     13 H          -0.8791    4.0589    1.3316 H     1    ESP         0.0020
     13 H          -1.3045    3.8754    1.3316 H     1    ESP         0.0018
     13 H          -1.6762    3.5987    1.3316 H     1    ESP         0.0016
     13 H          -1.9740    3.2437    1.3316 H     1    ESP         0.0013
     13 H           0.8019    4.0674    0.9167 H     1    ESP         0.0030
     13 H           0.3784    4.2560    0.9167 H     1    ESP         0.0026
     13 H          -0.0750    4.3524    0.9167 H     1    ESP         0.0024
     13 H          -0.5386    4.3524    0.9167 H     1    ESP         0.0023
     13 H          -0.9920    4.2560    0.9167 H     1    ESP         0.0022
     13 H          -1.4154    4.0674    0.9167 H     1    ESP         0.0020
     13 H          -1.7904    3.7950    0.9167 H     1    ESP         0.0018
     13 H          -2.1006    3.4505    0.9167 H     1    ESP         0.0016
     13 H           0.5940    4.3219    0.4664 H     1    ESP         0.0030
     13 H           0.1524    4.4558    0.4664 H     1    ESP         0.0027
     13 H          -0.3068    4.5011    0.4664 H     1    ESP         0.0025
     13 H          -0.7660    4.4558    0.4664 H     1    ESP         0.0024
     13 H          -1.2076    4.3219    0.4664 H     1    ESP         0.0022
     13 H          -1.6145    4.1044    0.4664 H     1    ESP         0.0021
     13 H          -1.9712    3.8116    0.4664 H     1    ESP         0.0019
     13 H          -2.2640    3.4549    0.4664 H     1    ESP         0.0016
     13 H           0.6902    4.3303   -0.0018 H     1    ESP         0.0031
     13 H           0.2590    4.4795   -0.0018 H     1    ESP         0.0028
     13 H          -0.1926    4.5445   -0.0018 H     1    ESP         0.0026
     13 H          -0.6483    4.5228   -0.0018 H     1    ESP         0.0024
     13 H          -1.0917    4.4152   -0.0018 H     1    ESP         0.0023
     13 H          -1.5068    4.2256   -0.0018 H     1    ESP         0.0022
     13 H          -1.8784    3.9610   -0.0018 H     1    ESP         0.0020
     13 H          -2.1933    3.6308   -0.0018 H     1    ESP         0.0018
     13 H           0.5940    4.3219   -0.4700 H     1    ESP         0.0029
     13 H           0.1524    4.4558   -0.4700 H     1    ESP         0.0027
     13 H          -0.3068    4.5011   -0.4700 H     1    ESP         0.0025
     13 H          -0.7660    4.4558   -0.4700 H     1    ESP         0.0024
     13 H          -1.2076    4.3219   -0.4700 H     1    ESP         0.0022
     13 H          -1.6145    4.1044   -0.4700 H     1    ESP         0.0021
     13 H          -1.9712    3.8116   -0.4700 H     1    ESP         0.0019
     13 H          -2.2640    3.4549   -0.4700 H     1    ESP         0.0016
     13 H           0.8019    4.0674   -0.9202 H     1    ESP         0.0029
     13 H           0.3784    4.2560   -0.9202 H     1    ESP         0.0026
     13 H          -0.0750    4.3524   -0.9202 H     1    ESP         0.0024
     13 H          -0.5386    4.3524   -0.9202 H     1    ESP         0.0023
     13 H          -0.9920    4.2560   -0.9202 H     1    ESP         0.0022
     13 H          -1.4154    4.0674   -0.9202 H     1    ESP         0.0020
     13 H          -1.7904    3.7950   -0.9202 H     1    ESP         0.0018
     13 H          -2.1006    3.4505   -0.9202 H     1    ESP         0.0016
     13 H           0.4836    3.9795   -1.3352 H     1    ESP         0.0023
     13 H           0.0397    4.1124   -1.3352 H     1    ESP         0.0022
     13 H          -0.4228    4.1393   -1.3352 H     1    ESP         0.0021
     13 H          -0.8791    4.0589   -1.3352 H     1    ESP         0.0020
     13 H          -1.3045    3.8754   -1.3352 H     1    ESP         0.0018
     13 H          -1.6762    3.5987   -1.3352 H     1    ESP         0.0016
     13 H          -1.9740    3.2437   -1.3352 H     1    ESP         0.0013
     13 H           0.0385    3.8087   -1.6988 H     1    ESP         0.0018
     13 H          -0.4226    3.8403   -1.6988 H     1    ESP         0.0017
     13 H          -0.8751    3.7463   -1.6988 H     1    ESP         0.0016
     13 H          -1.2854    3.5336   -1.6988 H     1    ESP         0.0015
     13 H          -1.6232    3.2182   -1.6988 H     1    ESP         0.0011
     13 H          -0.0752    3.4603   -1.9973 H     1    ESP         0.0012
     13 H          -0.5383    3.4603   -1.9973 H     1    ESP         0.0012
     13 H          -0.9735    3.3019   -1.9973 H     1    ESP         0.0011
     13 H          -1.3282    3.0043   -1.9973 H     1    ESP         0.0008
