@<TRIPOS>MOLECULE
*****
 12 12 0 0 0
SMALL
GASTEIGER

@<TRIPOS>ATOM
      1 C           1.0051    1.2128   -0.0074 C.ar    1  UNL1       -0.0478
      2 C           2.4007    1.2074    0.0027 C.ar    1  UNL1       -0.0607
      3 C           3.0943   -0.0032    0.0101 C.ar    1  UNL1       -0.0617
      4 C           2.3947   -1.2106    0.0044 C.ar    1  UNL1       -0.0607
      5 C           0.9990   -1.2087   -0.0065 C.ar    1  UNL1       -0.0478
      6 C           0.3105    0.0037   -0.0103 C.ar    1  UNL1        0.0179
      7 BR         -1.5802    0.0085   -0.0162 Br      1  UNL1       -0.0503
      8 H           0.4717    2.1593   -0.0120 H       1  UNL1        0.0629
      9 H           2.9473    2.1471    0.0055 H       1  UNL1        0.0618
     10 H           4.1816   -0.0060    0.0204 H       1  UNL1        0.0618
     11 H           2.9366   -2.1529    0.0090 H       1  UNL1        0.0618
     12 H           0.4608   -2.1526   -0.0105 H       1  UNL1        0.0629
@<TRIPOS>BOND
     1     1     2   ar
     2     2     3   ar
     3     3     4   ar
     4     4     5   ar
     5     5     6   ar
     6     1     6   ar
     7     6     7    1
     8     1     8    1
     9     2     9    1
    10     3    10    1
    11     4    11    1
    12     5    12    1
