@<TRIPOS>MOLECULE
*****
 12 12 0 0 0
SMALL
GASTEIGER

@<TRIPOS>ATOM
      1 C           1.5253   -1.2178    0.0136 C.ar    1  UNL1       -0.0486
      2 C           2.9213   -1.1961   -0.0041 C.ar    1  UNL1       -0.0608
      3 C           3.6013    0.0217   -0.0151 C.ar    1  UNL1       -0.0617
      4 C           2.8880    1.2204   -0.0051 C.ar    1  UNL1       -0.0608
      5 C           1.4922    1.2034    0.0126 C.ar    1  UNL1       -0.0486
      6 C           0.8157   -0.0164    0.0188 C.ar    1  UNL1        0.0134
      7 I          -1.2630   -0.0448    0.0298 I       1  UNL1       -0.0438
      8 H           1.0085   -2.1735    0.0210 H       1  UNL1        0.0628
      9 H           3.4783   -2.1295   -0.0102 H       1  UNL1        0.0618
     10 H           4.6883    0.0367   -0.0323 H       1  UNL1        0.0618
     11 H           3.4194    2.1690   -0.0126 H       1  UNL1        0.0618
     12 H           0.9492    2.1451    0.0191 H       1  UNL1        0.0628
@<TRIPOS>BOND
     1     1     2   ar
     2     2     3   ar
     3     3     4   ar
     4     4     5   ar
     5     5     6   ar
     6     1     6   ar
     7     6     7    1
     8     1     8    1
     9     2     9    1
    10     3    10    1
    11     4    11    1
    12     5    12    1
