@<TRIPOS>MOLECULE
CH4
14   13    1
SMALL
USER_CHARGES


@<TRIPOS>ATOM
      1 C1          0.0000    0.0000    0.0000 C.3       1 UNK         0.0000 
      2 H2         -0.3633   -0.5138    0.8900 H         1 UNK         0.0000 
      3 H3         -0.3633    1.0277    0.0000 H         1 UNK         0.0000 
      4 C4         -0.5087   -0.7194   -1.2460 C.3       1 UNK         0.0000 
      5 H5          1.0900    0.0000    0.0000 H         1 UNK         0.0000 
      6 H6         -0.1456   -0.2059   -2.1363 H         1 UNK         0.0000 
      7 C7          0.0043   -2.1714   -1.2466 C.3       1 UNK         0.0000 
      8 H8         -1.5987   -0.7196   -1.2464 H         1 UNK         0.0000 
      9 C9         -0.5090   -2.8974   -2.5040 C.3       1 UNK         0.0000 
     10 H10         1.0943   -2.1722   -1.2468 H         1 UNK         0.0000 
     11 H11        -0.3588   -2.6860   -0.3570 H         1 UNK         0.0000 
     12 H12        -0.1460   -3.9251   -2.5045 H         1 UNK         0.0000 
     13 H13        -1.5990   -2.8977   -2.5045 H         1 UNK         0.0000 
     14 H14        -0.1460   -2.3839   -3.3943 H         1 UNK         0.0000 
@<TRIPOS>BOND
     1    1    2 1    
     2    1    3 1    
     3    1    4 1    
     4    1    5 1    
     5    4    6 1    
     6    4    7 1    
     7    4    8 1    
     8    7    9 1    
     9    7   10 1    
    10    7   11 1    
    11    9   12 1    
    12    9   13 1    
    13    9   14 1    
@<TRIPOS>SUBSTRUCTURE
     1 UNK         1 GROUP             0       ****    0 ROOT    
