@<TRIPOS>MOLECULE
*****
 6 5 0 0 0
SMALL
GASTEIGER

@<TRIPOS>ATOM
      1 C           1.0336   -0.0477   -0.0147 C.3     1  UNL1        0.0825
      2 F           2.4150   -0.0473   -0.0153 F       1  UNL1       -0.2189
      3 F           3.7507   -0.0472   -0.0157 F       1  UNL1       -0.0374
      4 H           0.6649   -0.2377    1.0143 H       1  UNL1        0.0579
      5 H           0.6639   -0.8438   -0.6930 H       1  UNL1        0.0579
      6 H           0.6634    0.9380   -0.3643 H       1  UNL1        0.0579
@<TRIPOS>BOND
     1     1     2    1
     2     2     3    1
     3     1     4    1
     4     1     5    1
     5     1     6    1
