@<TRIPOS>MOLECULE
*****
 5 4 0 0 0
SMALL
GASTEIGER

@<TRIPOS>ATOM
      1 F           0.9927    0.0213    0.0805 F       1  UNL1       -0.1738
      2 C           2.3422    0.0448    0.1071 C.3     1  UNL1        0.3800
      3 F           2.7753   -1.2141    0.3309 F       1  UNL1       -0.1738
      4 F           2.7753    0.4221   -1.1145 F       1  UNL1       -0.1738
      5 H           2.7065    0.7270    0.8794 H       1  UNL1        0.1412
@<TRIPOS>BOND
     1     1     2    1
     2     2     3    1
     3     2     4    1
     4     2     5    1
