@<TRIPOS>MOLECULE
CH4
5   4    1
SMALL
USER_CHARGES


@<TRIPOS>ATOM
      1 C1          0.0000    0.0000    0.0000 C.3       1 UNK         0.0000 
      2 H2         -0.3633   -0.5138    0.8900 H         1 UNK         0.0000 
      3 H3         -0.3633    1.0277    0.0000 H         1 UNK         0.0000 
      4 H4         -0.3633   -0.5138   -0.8900 H         1 UNK         0.0000 
      5 H5          1.0900    0.0000    0.0000 H         1 UNK         0.0000 
@<TRIPOS>BOND
     1    1    2 1    
     2    1    3 1    
     3    1    4 1    
     4    1    5 1    
@<TRIPOS>SUBSTRUCTURE
     1 UNK         1 GROUP             0       ****    0 ROOT    
