@<TRIPOS>MOLECULE
*****
 8 8 0 0 0
SMALL
GASTEIGER

@<TRIPOS>ATOM
      1 C          -0.0114    1.2554    0.0011 C.ar    1  UNL1       -0.0048
      2 C           1.2756    0.7613   -0.0067 C.ar    1  UNL1        0.0347
      3 N           1.3885   -0.6153   -0.0112 N.ar    1  UNL1       -0.2557
      4 C           0.1856   -1.1472   -0.0083 C.ar    1  UNL1        0.0647
      5 S          -1.1300   -0.0452    0.0015 S.2     1  UNL1       -0.0839
      6 H          -0.3372    2.2853    0.0060 H       1  UNL1        0.0709
      7 H           2.1748    1.3656   -0.0096 H       1  UNL1        0.0835
      8 H           0.0272   -2.2177   -0.0121 H       1  UNL1        0.0907
@<TRIPOS>BOND
     1     1     2   ar
     2     2     3   ar
     3     3     4   ar
     4     4     5   ar
     5     1     5   ar
     6     1     6    1
     7     2     7    1
     8     4     8    1
