@<TRIPOS>MOLECULE
*****
 9 9 0 0 0
SMALL
GASTEIGER

@<TRIPOS>ATOM
      1 C           0.1041    1.2320   -0.0049 C.ar    1  UNL1       -0.0243
      2 C           1.3830    0.7196    0.0014 C.ar    1  UNL1       -0.0547
      3 C           1.3874   -0.7055    0.0018 C.ar    1  UNL1       -0.0547
      4 C           0.1119   -1.2261   -0.0052 C.ar    1  UNL1       -0.0243
      5 S          -1.0831   -0.0008   -0.0094 S.2     1  UNL1       -0.1051
      6 H          -0.1935    2.2717   -0.0070 H       1  UNL1        0.0693
      7 H           2.2722    1.3380    0.0053 H       1  UNL1        0.0623
      8 H           2.2807   -1.3182    0.0061 H       1  UNL1        0.0623
      9 H          -0.1790   -2.2676   -0.0078 H       1  UNL1        0.0693
@<TRIPOS>BOND
     1     1     2   ar
     2     2     3   ar
     3     3     4   ar
     4     4     5   ar
     5     1     5   ar
     6     1     6    1
     7     2     7    1
     8     3     8    1
     9     4     9    1
