@<TRIPOS>MOLECULE
opt.xyz
 12 12 0 0 0
SMALL
GASTEIGER

@<TRIPOS>ATOM
      1 C           0.2653   -1.2149    0.0021 C.ar    1  UNL1       -0.0434
      2 C           1.6611   -1.1989    0.0146 C.ar    1  UNL1       -0.0604
      3 C           2.3553    0.0124    0.0214 C.ar    1  UNL1       -0.0617
      4 C           1.6483    1.2164    0.0157 C.ar    1  UNL1       -0.0604
      5 C           0.2525    1.2177    0.0030 C.ar    1  UNL1       -0.0434
      6 C          -0.4236   -0.0022   -0.0036 C.ar    1  UNL1        0.0410
      7 CL         -2.1848   -0.0115   -0.0201 Cl      1  UNL1       -0.0835
      8 H          -0.2840   -2.1503   -0.0035 H       1  UNL1        0.0632
      9 H           2.2037   -2.1402    0.0189 H       1  UNL1        0.0618
     10 H           3.4413    0.0182    0.0310 H       1  UNL1        0.0618
     11 H           2.1810    2.1634    0.0208 H       1  UNL1        0.0618
     12 H          -0.3068    2.1472   -0.0018 H       1  UNL1        0.0632
@<TRIPOS>BOND
     1     7     6    1
     2     6     1   ar
     3     6     5   ar
     4     8     1    1
     5    12     5    1
     6     1     2   ar
     7     5     4   ar
     8     2     9    1
     9     2     3   ar
    10     4    11    1
    11     4     3   ar
    12     3    10    1
