@<TRIPOS>MOLECULE
opt.xyz
   14    14     1     0     0
SMALL
bcc


@<TRIPOS>ATOM
      1 S           -0.7270     1.2770     0.0000 ss         1 UNL      -0.179800
      2 C           -2.2540     0.4740     0.0000 cc         1 UNL      -0.008100
      3 C1          -2.1290    -0.8940     0.0000 cd         1 UNL      -0.136000
      4 C2          -0.7720    -1.3100     0.0000 cd         1 UNL      -0.060000
      5 C3           0.1200    -0.2550     0.0000 cc         1 UNL      -0.106700
      6 C4           1.5910    -0.2390     0.0000 c          1 UNL       0.661700
      7 C5           2.3470    -1.5600     0.0000 c3         1 UNL      -0.086100
      8 O            2.2060     0.8200     0.0000 o          1 UNL      -0.557100
      9 H           -3.1710     1.0500     0.0000 h4         1 UNL       0.146000
     10 H1          -2.9730    -1.5750     0.0000 ha         1 UNL       0.127000
     11 H2          -0.4660    -2.3490     0.0000 ha         1 UNL       0.123000
     12 H3           1.7120    -2.4480     0.0000 hc         1 UNL       0.025367
     13 H4           2.9960    -1.5850    -0.8810 hc         1 UNL       0.025367
     14 H5           2.9960    -1.5850     0.8810 hc         1 UNL       0.025367
@<TRIPOS>BOND
     1    13     7 1   
     2     1     2 1   
     3     1     5 1   
     4     2     3 2   
     5     2     9 1   
     6     3     4 1   
     7     3    10 1   
     8     4     5 2   
     9     4    11 1   
    10     5     6 1   
    11     6     7 1   
    12     6     8 2   
    13     7    12 1   
    14     7    14 1   
@<TRIPOS>SUBSTRUCTURE
     1 UNL         1 TEMP              0 ****  ****    0 ROOT
