@<TRIPOS>MOLECULE
MOL
   12    12     1     0     0
SMALL
resp


@<TRIPOS>ATOM
      1 C1           0.2650    -1.2150     0.0020 C.ar       1 MOL      -0.029696
      2 C2           1.6610    -1.1990     0.0150 C.ar       1 MOL      -0.171770
      3 C3           2.3550     0.0120     0.0210 C.ar       1 MOL      -0.098401
      4 C4           1.6480     1.2160     0.0160 C.ar       1 MOL      -0.171770
      5 C5           0.2520     1.2180     0.0030 C.ar       1 MOL      -0.029696
      6 C6          -0.4240    -0.0020    -0.0040 C.ar       1 MOL      -0.012623
      7 Cl1         -2.1850    -0.0120    -0.0200 Cl         1 MOL      -0.116769
      8 H1          -0.2840    -2.1500    -0.0040 H          1 MOL       0.112617
      9 H2           2.2040    -2.1400     0.0190 H          1 MOL       0.139204
     10 H3           3.4410     0.0180     0.0310 H          1 MOL       0.127081
     11 H4           2.1810     2.1630     0.0210 H          1 MOL       0.139204
     12 H5          -0.3070     2.1470    -0.0020 H          1 MOL       0.112617
@<TRIPOS>BOND
     1     1     2 ar  
     2     1     6 ar  
     3     1     8 1   
     4     2     3 ar  
     5     2     9 1   
     6     3     4 ar  
     7     3    10 1   
     8     4     5 ar  
     9     4    11 1   
    10     5     6 ar  
    11     5    12 1   
    12     6     7 1   
@<TRIPOS>SUBSTRUCTURE
     1 MOL         1 TEMP              0 ****  ****    0 ROOT
