@<TRIPOS>MOLECULE
ffESPLP.mol2
 4336 0 1
SMALL
USER_CHARGES
@<TRIPOS>ATOM
     16 H          -0.7265    1.2774    2.4500 H     1    ESP        -0.0060
     16 H          -0.2763    1.2774    2.4083 H     1    ESP        -0.0064
     16 H          -0.5014    1.6673    2.4083 H     1    ESP        -0.0060
     16 H          -0.9516    1.6673    2.4083 H     1    ESP        -0.0054
     16 H          -1.1767    1.2774    2.4083 H     1    ESP        -0.0056
     16 H          -0.9516    0.8875    2.4083 H     1    ESP        -0.0062
     16 H          -0.5014    0.8875    2.4083 H     1    ESP        -0.0063
     16 H           0.1585    1.2774    2.2846 H     1    ESP        -0.0068
     16 H           0.0400    1.7199    2.2846 H     1    ESP        -0.0067
     16 H          -0.2840    2.0439    2.2846 H     1    ESP        -0.0060
     16 H          -0.7265    2.1624    2.2846 H     1    ESP        -0.0052
     16 H          -1.1690    2.0439    2.2846 H     1    ESP        -0.0046
     16 H          -1.4930    1.7199    2.2846 H     1    ESP        -0.0045
     16 H          -1.6115    1.2774    2.2846 H     1    ESP        -0.0049
     16 H          -1.4930    0.8349    2.2846 H     1    ESP        -0.0059
     16 H          -1.1690    0.5109    2.2846 H     1    ESP        -0.0067
     16 H          -0.7265    0.3924    2.2846 H     1    ESP        -0.0068
     16 H          -0.2840    0.5109    2.2846 H     1    ESP        -0.0063
     16 H           0.0400    0.8349    2.2846 H     1    ESP        -0.0062
     16 H           0.5633    1.2774    2.0830 H     1    ESP        -0.0076
     16 H           0.4762    1.7433    2.0830 H     1    ESP        -0.0079
     16 H           0.2267    2.1463    2.0830 H     1    ESP        -0.0070
     16 H          -0.1516    2.4319    2.0830 H     1    ESP        -0.0059
     16 H          -0.6075    2.5616    2.0830 H     1    ESP        -0.0049
     16 H          -1.0795    2.5179    2.0830 H     1    ESP        -0.0040
     16 H          -1.5037    2.3066    2.0830 H     1    ESP        -0.0034
     16 H          -1.8231    1.9564    2.0830 H     1    ESP        -0.0031
     16 H          -1.9943    1.5144    2.0830 H     1    ESP        -0.0033
     16 H          -1.9943    1.0404    2.0830 H     1    ESP        -0.0044
     16 H          -1.8231    0.5984    2.0830 H     1    ESP        -0.0061
     16 H          -1.5037    0.2481    2.0830 H     1    ESP        -0.0075
     16 H          -1.0795    0.0369    2.0830 H     1    ESP        -0.0080
     16 H          -0.6075   -0.0069    2.0830 H     1    ESP        -0.0073
     16 H          -0.1516    0.1228    2.0830 H     1    ESP        -0.0058
     16 H           0.2267    0.4085    2.0830 H     1    ESP        -0.0049
     16 H           0.4762    0.8115    2.0830 H     1    ESP        -0.0060
     16 H           0.9241    1.2774    1.8106 H     1    ESP        -0.0100
     16 H           0.8572    1.7424    1.8106 H     1    ESP        -0.0104
     16 H           0.6620    2.1697    1.8106 H     1    ESP        -0.0088
     16 H           0.3544    2.5248    1.8106 H     1    ESP        -0.0071
     16 H          -0.0408    2.7788    1.8106 H     1    ESP        -0.0057
     16 H          -0.4916    2.9111    1.8106 H     1    ESP        -0.0044
     16 H          -0.9614    2.9111    1.8106 H     1    ESP        -0.0033
     16 H          -1.4122    2.7788    1.8106 H     1    ESP        -0.0024
     16 H          -1.8074    2.5248    1.8106 H     1    ESP        -0.0017
     16 H          -2.1150    2.1697    1.8106 H     1    ESP        -0.0012
     16 H          -2.3102    1.7424    1.8106 H     1    ESP        -0.0009
     16 H           0.8572    0.8124    1.8106 H     1    ESP        -0.0061
     16 H           1.1759    1.7283    1.4765 H     1    ESP        -0.0162
     16 H           1.0207    2.1549    1.4765 H     1    ESP        -0.0123
     16 H           0.7712    2.5341    1.4765 H     1    ESP        -0.0090
     16 H           0.4410    2.8457    1.4765 H     1    ESP        -0.0067
     16 H           0.0479    3.0726    1.4765 H     1    ESP        -0.0052
     16 H          -0.3870    3.2028    1.4765 H     1    ESP        -0.0039
     16 H          -0.8402    3.2292    1.4765 H     1    ESP        -0.0026
     16 H          -1.2872    3.1504    1.4765 H     1    ESP        -0.0013
     16 H          -1.7041    2.9706    1.4765 H     1    ESP        -0.0003
     16 H          -2.0682    2.6995    1.4765 H     1    ESP         0.0004
     16 H          -2.3600    2.3518    1.4765 H     1    ESP         0.0013
     16 H          -2.5637    1.9461    1.4765 H     1    ESP         0.0026
     16 H           1.2770    2.1694    1.0921 H     1    ESP        -0.0183
     16 H           1.0478    2.5665    1.0921 H     1    ESP        -0.0113
     16 H           0.7410    2.9072    1.0921 H     1    ESP        -0.0076
     16 H           0.3701    3.1767    1.0921 H     1    ESP        -0.0056
     16 H          -0.0488    3.3632    1.0921 H     1    ESP        -0.0041
     16 H          -0.4972    3.4585    1.0921 H     1    ESP        -0.0026
     16 H          -0.9557    3.4585    1.0921 H     1    ESP        -0.0009
     16 H          -1.4042    3.3632    1.0921 H     1    ESP         0.0008
     16 H          -1.8231    3.1767    1.0921 H     1    ESP         0.0021
     16 H          -2.1940    2.9072    1.0921 H     1    ESP         0.0029
     16 H          -2.5008    2.5665    1.0921 H     1    ESP         0.0040
     16 H           1.2328    2.5866    0.6705 H     1    ESP        -0.0138
     16 H           0.9398    2.9437    0.6705 H     1    ESP        -0.0082
     16 H           0.5827    3.2367    0.6705 H     1    ESP        -0.0057
     16 H           0.1753    3.4545    0.6705 H     1    ESP        -0.0042
     16 H          -0.2668    3.5886    0.6705 H     1    ESP        -0.0027
     16 H          -0.7265    3.6339    0.6705 H     1    ESP        -0.0007
     16 H          -1.1862    3.5886    0.6705 H     1    ESP         0.0017
     16 H          -1.6283    3.4545    0.6705 H     1    ESP         0.0040
     16 H          -2.0357    3.2367    0.6705 H     1    ESP         0.0053
     16 H          -2.3928    2.9437    0.6705 H     1    ESP         0.0058
     16 H          -2.6858    2.5866    0.6705 H     1    ESP         0.0076
     16 H           1.3258    2.5963    0.2261 H     1    ESP        -0.0156
     16 H           1.0391    2.9609    0.2261 H     1    ESP        -0.0083
     16 H           0.6886    3.2646    0.2261 H     1    ESP        -0.0057
     16 H           0.2869    3.4965    0.2261 H     1    ESP        -0.0042
     16 H          -0.1513    3.6482    0.2261 H     1    ESP        -0.0027
     16 H          -0.6104    3.7142    0.2261 H     1    ESP        -0.0006
     16 H          -1.0737    3.6921    0.2261 H     1    ESP         0.0022
     16 H          -1.5244    3.5828    0.2261 H     1    ESP         0.0052
     16 H          -1.9463    3.3901    0.2261 H     1    ESP         0.0072
     16 H          -2.3241    3.1211    0.2261 H     1    ESP         0.0076
     16 H          -2.6441    2.7854    0.2261 H     1    ESP         0.0084
     16 H           1.3258    2.5963   -0.2261 H     1    ESP        -0.0156
     16 H           1.0391    2.9609   -0.2261 H     1    ESP        -0.0083
     16 H           0.6886    3.2646   -0.2261 H     1    ESP        -0.0057
     16 H           0.2869    3.4965   -0.2261 H     1    ESP        -0.0042
     16 H          -0.1513    3.6482   -0.2261 H     1    ESP        -0.0027
     16 H          -0.6104    3.7142   -0.2261 H     1    ESP        -0.0006
     16 H          -1.0737    3.6921   -0.2261 H     1    ESP         0.0022
     16 H          -1.5244    3.5828   -0.2261 H     1    ESP         0.0052
     16 H          -1.9463    3.3901   -0.2261 H     1    ESP         0.0072
     16 H          -2.3241    3.1211   -0.2261 H     1    ESP         0.0076
     16 H          -2.6441    2.7854   -0.2261 H     1    ESP         0.0084
     16 H           1.2328    2.5866   -0.6705 H     1    ESP        -0.0138
     16 H           0.9398    2.9437   -0.6705 H     1    ESP        -0.0082
     16 H           0.5827    3.2367   -0.6705 H     1    ESP        -0.0057
     16 H           0.1753    3.4545   -0.6705 H     1    ESP        -0.0042
     16 H          -0.2668    3.5886   -0.6705 H     1    ESP        -0.0027
     16 H          -0.7265    3.6339   -0.6705 H     1    ESP        -0.0007
     16 H          -1.1862    3.5886   -0.6705 H     1    ESP         0.0017
     16 H          -1.6283    3.4545   -0.6705 H     1    ESP         0.0040
     16 H          -2.0357    3.2367   -0.6705 H     1    ESP         0.0053
     16 H          -2.3928    2.9437   -0.6705 H     1    ESP         0.0058
     16 H          -2.6858    2.5866   -0.6705 H     1    ESP         0.0076
     16 H           1.2770    2.1694   -1.0921 H     1    ESP        -0.0183
     16 H           1.0478    2.5665   -1.0921 H     1    ESP        -0.0113
     16 H           0.7410    2.9072   -1.0921 H     1    ESP        -0.0076
     16 H           0.3701    3.1767   -1.0921 H     1    ESP        -0.0056
     16 H          -0.0488    3.3632   -1.0921 H     1    ESP        -0.0041
     16 H          -0.4972    3.4585   -1.0921 H     1    ESP        -0.0026
     16 H          -0.9557    3.4585   -1.0921 H     1    ESP        -0.0009
     16 H          -1.4042    3.3632   -1.0921 H     1    ESP         0.0008
     16 H          -1.8231    3.1767   -1.0921 H     1    ESP         0.0021
     16 H          -2.1940    2.9072   -1.0921 H     1    ESP         0.0029
     16 H          -2.5008    2.5665   -1.0921 H     1    ESP         0.0040
     16 H           1.1759    1.7283   -1.4765 H     1    ESP        -0.0162
     16 H           1.0207    2.1549   -1.4765 H     1    ESP        -0.0123
     16 H           0.7712    2.5341   -1.4765 H     1    ESP        -0.0090
     16 H           0.4410    2.8457   -1.4765 H     1    ESP        -0.0067
     16 H           0.0479    3.0726   -1.4765 H     1    ESP        -0.0052
     16 H          -0.3870    3.2028   -1.4765 H     1    ESP        -0.0039
     16 H          -0.8402    3.2292   -1.4765 H     1    ESP        -0.0026
     16 H          -1.2872    3.1504   -1.4765 H     1    ESP        -0.0013
     16 H          -1.7041    2.9706   -1.4765 H     1    ESP        -0.0003
     16 H          -2.0682    2.6995   -1.4765 H     1    ESP         0.0004
     16 H          -2.3600    2.3518   -1.4765 H     1    ESP         0.0013
     16 H          -2.5637    1.9461   -1.4765 H     1    ESP         0.0026
     16 H           0.9241    1.2774   -1.8106 H     1    ESP        -0.0100
     16 H           0.8572    1.7424   -1.8106 H     1    ESP        -0.0104
     16 H           0.6620    2.1697   -1.8106 H     1    ESP        -0.0088
     16 H           0.3544    2.5248   -1.8106 H     1    ESP        -0.0071
     16 H          -0.0408    2.7788   -1.8106 H     1    ESP        -0.0057
     16 H          -0.4916    2.9111   -1.8106 H     1    ESP        -0.0044
     16 H          -0.9614    2.9111   -1.8106 H     1    ESP        -0.0033
     16 H          -1.4122    2.7788   -1.8106 H     1    ESP        -0.0024
     16 H          -1.8074    2.5248   -1.8106 H     1    ESP        -0.0017
     16 H          -2.1150    2.1697   -1.8106 H     1    ESP        -0.0012
     16 H          -2.3102    1.7424   -1.8106 H     1    ESP        -0.0009
     16 H           0.8572    0.8124   -1.8106 H     1    ESP        -0.0061
     16 H           0.5633    1.2774   -2.0830 H     1    ESP        -0.0076
     16 H           0.4762    1.7433   -2.0830 H     1    ESP        -0.0079
     16 H           0.2267    2.1463   -2.0830 H     1    ESP        -0.0070
     16 H          -0.1516    2.4319   -2.0830 H     1    ESP        -0.0059
     16 H          -0.6075    2.5616   -2.0830 H     1    ESP        -0.0049
     16 H          -1.0795    2.5179   -2.0830 H     1    ESP        -0.0040
     16 H          -1.5037    2.3066   -2.0830 H     1    ESP        -0.0034
     16 H          -1.8231    1.9564   -2.0830 H     1    ESP        -0.0031
     16 H          -1.9943    1.5144   -2.0830 H     1    ESP        -0.0033
     16 H          -1.9943    1.0404   -2.0830 H     1    ESP        -0.0044
     16 H          -1.8231    0.5984   -2.0830 H     1    ESP        -0.0061
     16 H          -1.5037    0.2481   -2.0830 H     1    ESP        -0.0075
     16 H          -1.0795    0.0369   -2.0830 H     1    ESP        -0.0080
     16 H          -0.6075   -0.0069   -2.0830 H     1    ESP        -0.0073
     16 H          -0.1516    0.1228   -2.0830 H     1    ESP        -0.0058
     16 H           0.2267    0.4085   -2.0830 H     1    ESP        -0.0049
     16 H           0.4762    0.8115   -2.0830 H     1    ESP        -0.0060
     16 H           0.1585    1.2774   -2.2846 H     1    ESP        -0.0068
     16 H           0.0400    1.7199   -2.2846 H     1    ESP        -0.0067
     16 H          -0.2840    2.0439   -2.2846 H     1    ESP        -0.0060
     16 H          -0.7265    2.1624   -2.2846 H     1    ESP        -0.0052
     16 H          -1.1690    2.0439   -2.2846 H     1    ESP        -0.0046
     16 H          -1.4930    1.7199   -2.2846 H     1    ESP        -0.0045
     16 H          -1.6115    1.2774   -2.2846 H     1    ESP        -0.0049
     16 H          -1.4930    0.8349   -2.2846 H     1    ESP        -0.0059
     16 H          -1.1690    0.5109   -2.2846 H     1    ESP        -0.0067
     16 H          -0.7265    0.3924   -2.2846 H     1    ESP        -0.0068
     16 H          -0.2840    0.5109   -2.2846 H     1    ESP        -0.0063
     16 H           0.0400    0.8349   -2.2846 H     1    ESP        -0.0062
     16 H          -0.2763    1.2774   -2.4083 H     1    ESP        -0.0064
     16 H          -0.5014    1.6673   -2.4083 H     1    ESP        -0.0060
     16 H          -0.9516    1.6673   -2.4083 H     1    ESP        -0.0054
     16 H          -1.1767    1.2774   -2.4083 H     1    ESP        -0.0056
     16 H          -0.9516    0.8875   -2.4083 H     1    ESP        -0.0062
     16 H          -0.5014    0.8875   -2.4083 H     1    ESP        -0.0063
     16 H          -0.7265    1.2774   -2.4500 H     1    ESP        -0.0060
     16 H          -2.2544    0.4737    2.1000 H     1    ESP        -0.0036
     16 H          -2.0207    0.8784    2.0473 H     1    ESP        -0.0047
     16 H          -2.4880    0.8784    2.0473 H     1    ESP        -0.0015
     16 H          -2.7217    0.4737    2.0473 H     1    ESP        -0.0008
     16 H          -2.4880    0.0690    2.0473 H     1    ESP        -0.0029
     16 H          -2.0207    0.0690    2.0473 H     1    ESP        -0.0056
     16 H          -2.7099    1.2628    1.8920 H     1    ESP         0.0010
     16 H          -3.0434    0.9293    1.8920 H     1    ESP         0.0026
     16 H          -3.1655    0.4737    1.8920 H     1    ESP         0.0021
     16 H          -3.0434    0.0181    1.8920 H     1    ESP         0.0004
     16 H          -2.4817    1.7631    1.6418 H     1    ESP         0.0009
     16 H          -2.9090    1.6076    1.6418 H     1    ESP         0.0042
     16 H          -3.5637    0.4737    1.6418 H     1    ESP         0.0054
     16 H          -3.4847    0.0259    1.6418 H     1    ESP         0.0035
     16 H          -3.8297    0.0111    1.3093 H     1    ESP         0.0067
     16 H          -3.8297    0.0111   -1.3093 H     1    ESP         0.0067
     16 H          -2.4817    1.7631   -1.6418 H     1    ESP         0.0009
     16 H          -2.9090    1.6076   -1.6418 H     1    ESP         0.0042
     16 H          -3.5637    0.4737   -1.6418 H     1    ESP         0.0054
     16 H          -3.4847    0.0259   -1.6418 H     1    ESP         0.0035
     16 H          -2.7099    1.2628   -1.8920 H     1    ESP         0.0010
     16 H          -3.0434    0.9293   -1.8920 H     1    ESP         0.0026
     16 H          -3.1655    0.4737   -1.8920 H     1    ESP         0.0021
     16 H          -3.0434    0.0181   -1.8920 H     1    ESP         0.0004
     16 H          -2.0207    0.8784   -2.0473 H     1    ESP        -0.0047
     16 H          -2.4880    0.8784   -2.0473 H     1    ESP        -0.0015
     16 H          -2.7217    0.4737   -2.0473 H     1    ESP        -0.0008
     16 H          -2.4880    0.0690   -2.0473 H     1    ESP        -0.0029
     16 H          -2.0207    0.0690   -2.0473 H     1    ESP        -0.0056
     16 H          -2.2544    0.4737   -2.1000 H     1    ESP        -0.0036
     16 H          -2.1294   -0.8942    2.1000 H     1    ESP        -0.0030
     16 H          -1.6621   -0.8942    2.0473 H     1    ESP        -0.0046
     16 H          -1.8957   -0.4895    2.0473 H     1    ESP        -0.0054
     16 H          -2.3630   -0.4895    2.0473 H     1    ESP        -0.0033
     16 H          -2.5967   -0.8942    2.0473 H     1    ESP        -0.0012
     16 H          -2.3630   -1.2988    2.0473 H     1    ESP        -0.0007
     16 H          -1.8957   -1.2988    2.0473 H     1    ESP        -0.0021
     16 H          -1.3403   -0.4386    1.8920 H     1    ESP        -0.0084
     16 H          -2.9185   -0.4386    1.8920 H     1    ESP        -0.0006
     16 H          -3.0405   -0.8942    1.8920 H     1    ESP         0.0010
     16 H          -2.9185   -1.3497    1.8920 H     1    ESP         0.0020
     16 H          -2.5849   -1.6832    1.8920 H     1    ESP         0.0019
     16 H          -2.1294   -1.8053    1.8920 H     1    ESP         0.0008
     16 H          -1.6738   -1.6832    1.8920 H     1    ESP        -0.0007
     16 H          -3.3597   -0.4463    1.6418 H     1    ESP         0.0023
     16 H          -3.4387   -0.8942    1.6418 H     1    ESP         0.0036
     16 H          -3.3597   -1.3420    1.6418 H     1    ESP         0.0050
     16 H          -2.7840   -2.0281    1.6418 H     1    ESP         0.0050
     16 H          -2.3567   -2.1836    1.6418 H     1    ESP         0.0037
     16 H          -1.9020   -2.1836    1.6418 H     1    ESP         0.0027
     16 H          -3.7047   -0.4316    1.3093 H     1    ESP         0.0053
     16 H          -2.3630   -2.5193    1.3093 H     1    ESP         0.0064
     16 H          -1.8957   -2.5193    1.3093 H     1    ESP         0.0056
     16 H          -3.9664   -0.4414    0.9112 H     1    ESP         0.0083
     16 H          -4.1254   -0.4386    0.4673 H     1    ESP         0.0105
     16 H          -4.1254   -0.4386   -0.4673 H     1    ESP         0.0105
     16 H          -3.9664   -0.4414   -0.9112 H     1    ESP         0.0083
     16 H          -3.7047   -0.4316   -1.3093 H     1    ESP         0.0053
     16 H          -2.3630   -2.5193   -1.3093 H     1    ESP         0.0064
     16 H          -1.8957   -2.5193   -1.3093 H     1    ESP         0.0056
     16 H          -3.3597   -0.4463   -1.6418 H     1    ESP         0.0023
     16 H          -3.4387   -0.8942   -1.6418 H     1    ESP         0.0036
     16 H          -3.3597   -1.3420   -1.6418 H     1    ESP         0.0050
     16 H          -2.7840   -2.0281   -1.6418 H     1    ESP         0.0050
     16 H          -2.3567   -2.1836   -1.6418 H     1    ESP         0.0037
     16 H          -1.9020   -2.1836   -1.6418 H     1    ESP         0.0027
     16 H          -1.3403   -0.4386   -1.8920 H     1    ESP        -0.0084
     16 H          -2.9185   -0.4386   -1.8920 H     1    ESP        -0.0006
     16 H          -3.0405   -0.8942   -1.8920 H     1    ESP         0.0010
     16 H          -2.9185   -1.3497   -1.8920 H     1    ESP         0.0020
     16 H          -2.5849   -1.6832   -1.8920 H     1    ESP         0.0019
     16 H          -2.1294   -1.8053   -1.8920 H     1    ESP         0.0008
     16 H          -1.6738   -1.6832   -1.8920 H     1    ESP        -0.0007
     16 H          -1.6621   -0.8942   -2.0473 H     1    ESP        -0.0046
     16 H          -1.8957   -0.4895   -2.0473 H     1    ESP        -0.0054
     16 H          -2.3630   -0.4895   -2.0473 H     1    ESP        -0.0033
     16 H          -2.5967   -0.8942   -2.0473 H     1    ESP        -0.0012
     16 H          -2.3630   -1.2988   -2.0473 H     1    ESP        -0.0007
     16 H          -1.8957   -1.2988   -2.0473 H     1    ESP        -0.0021
     16 H          -2.1294   -0.8942   -2.1000 H     1    ESP        -0.0030
     16 H          -0.7717   -1.3096    2.1000 H     1    ESP        -0.0012
     16 H          -0.3044   -1.3096    2.0473 H     1    ESP         0.0007
     16 H          -0.5381   -0.9049    2.0473 H     1    ESP        -0.0029
     16 H          -1.0053   -0.9049    2.0473 H     1    ESP        -0.0044
     16 H          -1.2390   -1.3096    2.0473 H     1    ESP        -0.0024
     16 H          -1.0053   -1.7143    2.0473 H     1    ESP         0.0005
     16 H          -0.5381   -1.7143    2.0473 H     1    ESP         0.0020
     16 H           0.1395   -1.3096    1.8920 H     1    ESP         0.0038
     16 H          -1.2273   -0.5205    1.8920 H     1    ESP        -0.0081
     16 H          -1.5608   -1.7651    1.8920 H     1    ESP        -0.0002
     16 H          -1.2273   -2.0986    1.8920 H     1    ESP         0.0024
     16 H          -0.7717   -2.2207    1.8920 H     1    ESP         0.0044
     16 H          -0.3161   -2.0986    1.8920 H     1    ESP         0.0053
     16 H           0.0174   -1.7651    1.8920 H     1    ESP         0.0052
     16 H          -1.4264   -2.4435    1.6418 H     1    ESP         0.0046
     16 H          -0.9991   -2.5990    1.6418 H     1    ESP         0.0068
     16 H          -0.1170   -2.4435    1.6418 H     1    ESP         0.0093
     16 H           0.2313   -2.1512    1.6418 H     1    ESP         0.0094
     16 H           0.4587   -1.7574    1.6418 H     1    ESP         0.0095
     16 H          -1.8469   -2.5504    1.3093 H     1    ESP         0.0057
     16 H          -1.4537   -2.8030    1.3093 H     1    ESP         0.0079
     16 H           0.6095   -2.1972    1.3093 H     1    ESP         0.0142
     16 H          -1.8465   -2.8667    0.9112 H     1    ESP         0.0089
     16 H          -1.8465   -2.8667   -0.9112 H     1    ESP         0.0089
     16 H          -1.8469   -2.5504   -1.3093 H     1    ESP         0.0057
     16 H          -1.4537   -2.8030   -1.3093 H     1    ESP         0.0079
     16 H           0.6095   -2.1972   -1.3093 H     1    ESP         0.0142
     16 H          -1.4264   -2.4435   -1.6418 H     1    ESP         0.0046
     16 H          -0.9991   -2.5990   -1.6418 H     1    ESP         0.0068
     16 H          -0.1170   -2.4435   -1.6418 H     1    ESP         0.0093
     16 H           0.2313   -2.1512   -1.6418 H     1    ESP         0.0094
     16 H           0.4587   -1.7574   -1.6418 H     1    ESP         0.0095
     16 H           0.1395   -1.3096   -1.8920 H     1    ESP         0.0038
     16 H          -1.2273   -0.5205   -1.8920 H     1    ESP        -0.0081
     16 H          -1.5608   -1.7651   -1.8920 H     1    ESP        -0.0002
     16 H          -1.2273   -2.0986   -1.8920 H     1    ESP         0.0024
     16 H          -0.7717   -2.2207   -1.8920 H     1    ESP         0.0044
     16 H          -0.3161   -2.0986   -1.8920 H     1    ESP         0.0053
     16 H           0.0174   -1.7651   -1.8920 H     1    ESP         0.0052
     16 H          -0.3044   -1.3096   -2.0473 H     1    ESP         0.0007
     16 H          -0.5381   -0.9049   -2.0473 H     1    ESP        -0.0029
     16 H          -1.0053   -0.9049   -2.0473 H     1    ESP        -0.0044
     16 H          -1.2390   -1.3096   -2.0473 H     1    ESP        -0.0024
     16 H          -1.0053   -1.7143   -2.0473 H     1    ESP         0.0005
     16 H          -0.5381   -1.7143   -2.0473 H     1    ESP         0.0020
     16 H          -0.7717   -1.3096   -2.1000 H     1    ESP        -0.0012
     16 H           0.1200   -0.2552    2.1000 H     1    ESP        -0.0019
     16 H           0.5873   -0.2552    2.0473 H     1    ESP         0.0024
     16 H           0.3537    0.1495    2.0473 H     1    ESP        -0.0025
     16 H          -0.3473   -0.2552    2.0473 H     1    ESP        -0.0054
     16 H          -0.1136   -0.6599    2.0473 H     1    ESP        -0.0018
     16 H           0.3537   -0.6599    2.0473 H     1    ESP         0.0023
     16 H           0.5756   -1.0443    1.8920 H     1    ESP         0.0071
     16 H           0.7747   -1.3891    1.6418 H     1    ESP         0.0124
     16 H           0.7747   -1.3891   -1.6418 H     1    ESP         0.0124
     16 H           0.5756   -1.0443   -1.8920 H     1    ESP         0.0071
     16 H           0.5873   -0.2552   -2.0473 H     1    ESP         0.0024
     16 H           0.3537    0.1495   -2.0473 H     1    ESP        -0.0025
     16 H          -0.3473   -0.2552   -2.0473 H     1    ESP        -0.0054
     16 H          -0.1136   -0.6599   -2.0473 H     1    ESP        -0.0018
     16 H           0.3537   -0.6599   -2.0473 H     1    ESP         0.0023
     16 H           0.1200   -0.2552   -2.1000 H     1    ESP        -0.0019
     16 H           1.5912   -0.2386    2.1000 H     1    ESP         0.0069
     16 H           2.0584   -0.2386    2.0473 H     1    ESP         0.0057
     16 H           1.8248    0.1661    2.0473 H     1    ESP         0.0013
     16 H           1.3575    0.1661    2.0473 H     1    ESP         0.0027
     16 H           1.1239   -0.2386    2.0473 H     1    ESP         0.0067
     16 H           1.3575   -0.6432    2.0473 H     1    ESP         0.0104
     16 H           1.8248   -0.6432    2.0473 H     1    ESP         0.0103
     16 H           2.5023   -0.2386    1.8920 H     1    ESP         0.0035
     16 H           2.3802    0.2170    1.8920 H     1    ESP        -0.0036
     16 H           1.5912    0.6726    1.8920 H     1    ESP        -0.0062
     16 H           1.1356    0.5505    1.8920 H     1    ESP        -0.0022
     16 H           1.1356   -1.0276    1.8920 H     1    ESP         0.0126
     16 H           0.9365   -1.3725    1.6418 H     1    ESP         0.0142
     16 H           0.9365   -1.3725   -1.6418 H     1    ESP         0.0142
     16 H           2.5023   -0.2386   -1.8920 H     1    ESP         0.0035
     16 H           2.3802    0.2170   -1.8920 H     1    ESP        -0.0036
     16 H           1.5912    0.6726   -1.8920 H     1    ESP        -0.0062
     16 H           1.1356    0.5505   -1.8920 H     1    ESP        -0.0022
     16 H           1.1356   -1.0276   -1.8920 H     1    ESP         0.0126
     16 H           2.0584   -0.2386   -2.0473 H     1    ESP         0.0057
     16 H           1.8248    0.1661   -2.0473 H     1    ESP         0.0013
     16 H           1.3575    0.1661   -2.0473 H     1    ESP         0.0027
     16 H           1.1239   -0.2386   -2.0473 H     1    ESP         0.0067
     16 H           1.3575   -0.6432   -2.0473 H     1    ESP         0.0104
     16 H           1.8248   -0.6432   -2.0473 H     1    ESP         0.0103
     16 H           1.5912   -0.2386   -2.1000 H     1    ESP         0.0069
     16 H           1.4361   -1.5599    1.8920 H     1    ESP         0.0119
     16 H           1.5582   -2.0155    1.8920 H     1    ESP         0.0099
     16 H           1.8917   -2.3490    1.8920 H     1    ESP         0.0084
     16 H           1.0379   -1.5599    1.6418 H     1    ESP         0.0141
     16 H           1.1169   -2.0077    1.6418 H     1    ESP         0.0121
     16 H           1.3442   -2.4015    1.6418 H     1    ESP         0.0104
     16 H           2.1199   -2.8494    1.6418 H     1    ESP         0.0075
     16 H           2.5809   -3.1851    1.3093 H     1    ESP         0.0063
     16 H           3.0182   -3.3290    0.9112 H     1    ESP         0.0053
     16 H           3.2356   -3.4045    0.4673 H     1    ESP         0.0048
     16 H           3.6237   -3.1606    0.4673 H     1    ESP         0.0043
     16 H           4.4472   -1.5599    0.0000 H     1    ESP         0.0025
     16 H           4.3981   -1.1085    0.0000 H     1    ESP         0.0011
     16 H           4.2532   -0.6782    0.0000 H     1    ESP        -0.0015
     16 H           4.0190   -0.2891    0.0000 H     1    ESP        -0.0068
     16 H           3.3309   -3.4153    0.0000 H     1    ESP         0.0046
     16 H           3.7068   -3.1605    0.0000 H     1    ESP         0.0041
     16 H           4.0190   -2.8308    0.0000 H     1    ESP         0.0038
     16 H           4.2532   -2.4417    0.0000 H     1    ESP         0.0036
     16 H           4.3981   -2.0114    0.0000 H     1    ESP         0.0032
     16 H           3.2356   -3.4045   -0.4673 H     1    ESP         0.0048
     16 H           3.6237   -3.1606   -0.4673 H     1    ESP         0.0043
     16 H           3.0182   -3.3290   -0.9112 H     1    ESP         0.0053
     16 H           2.5809   -3.1851   -1.3093 H     1    ESP         0.0063
     16 H           1.0379   -1.5599   -1.6418 H     1    ESP         0.0141
     16 H           1.1169   -2.0077   -1.6418 H     1    ESP         0.0121
     16 H           1.3442   -2.4015   -1.6418 H     1    ESP         0.0104
     16 H           2.1199   -2.8494   -1.6418 H     1    ESP         0.0075
     16 H           1.4361   -1.5599   -1.8920 H     1    ESP         0.0119
     16 H           1.5582   -2.0155   -1.8920 H     1    ESP         0.0099
     16 H           1.8917   -2.3490   -1.8920 H     1    ESP         0.0084
     16 H           2.2063    0.8204    1.9600 H     1    ESP        -0.0120
     16 H           2.6753    0.8204    1.9030 H     1    ESP        -0.0142
     16 H           2.4408    1.2266    1.9030 H     1    ESP        -0.0170
     16 H           1.9717    1.2266    1.9030 H     1    ESP        -0.0154
     16 H           1.7372    0.8204    1.9030 H     1    ESP        -0.0097
     16 H           2.4408    0.4142    1.9030 H     1    ESP        -0.0078
     16 H           3.1171    0.8204    1.7355 H     1    ESP        -0.0161
     16 H           2.9951    1.2758    1.7355 H     1    ESP        -0.0191
     16 H           2.6617    1.6092    1.7355 H     1    ESP        -0.0203
     16 H           2.2063    1.7312    1.7355 H     1    ESP        -0.0199
     16 H           1.7508    1.6092    1.7355 H     1    ESP        -0.0180
     16 H           1.4174    1.2758    1.7355 H     1    ESP        -0.0143
     16 H           2.9951    0.3650    1.7355 H     1    ESP        -0.0107
     16 H           3.5060    0.8204    1.4671 H     1    ESP        -0.0176
     16 H           3.4182    1.2899    1.4671 H     1    ESP        -0.0204
     16 H           3.1668    1.6960    1.4671 H     1    ESP        -0.0219
     16 H           2.7856    1.9839    1.4671 H     1    ESP        -0.0225
     16 H           2.3262    2.1146    1.4671 H     1    ESP        -0.0221
     16 H           1.8506    2.0705    1.4671 H     1    ESP        -0.0208
     16 H           1.4230    1.8576    1.4671 H     1    ESP        -0.0186
     16 H           3.4182    0.3509    1.4671 H     1    ESP        -0.0129
     16 H           3.8193    0.8204    1.1134 H     1    ESP        -0.0187
     16 H           3.7540    1.2748    1.1134 H     1    ESP        -0.0212
     16 H           3.5632    1.6925    1.1134 H     1    ESP        -0.0228
     16 H           3.2626    2.0395    1.1134 H     1    ESP        -0.0236
     16 H           2.8763    2.2877    1.1134 H     1    ESP        -0.0239
     16 H           2.4358    2.4170    1.1134 H     1    ESP        -0.0234
     16 H           1.9767    2.4170    1.1134 H     1    ESP        -0.0223
     16 H           1.5362    2.2877    1.1134 H     1    ESP        -0.0203
     16 H           3.7540    0.3659    1.1134 H     1    ESP        -0.0147
     16 H           4.0389    0.8204    0.6950 H     1    ESP        -0.0194
     16 H           3.9813    1.2761    0.6950 H     1    ESP        -0.0218
     16 H           3.8122    1.7033    0.6950 H     1    ESP        -0.0233
     16 H           3.5422    2.0749    0.6950 H     1    ESP        -0.0243
     16 H           3.1882    2.3677    0.6950 H     1    ESP        -0.0247
     16 H           2.7726    2.5633    0.6950 H     1    ESP        -0.0246
     16 H           2.3213    2.6494    0.6950 H     1    ESP        -0.0238
     16 H           1.8629    2.6206    0.6950 H     1    ESP        -0.0222
     16 H           1.4260    2.4786    0.6950 H     1    ESP        -0.0190
     16 H           3.8122   -0.0625    0.6950 H     1    ESP        -0.0104
     16 H           3.9813    0.3646    0.6950 H     1    ESP        -0.0158
     16 H           4.1520    0.8204    0.2363 H     1    ESP        -0.0197
     16 H           4.0954    1.2860    0.2363 H     1    ESP        -0.0221
     16 H           3.9291    1.7246    0.2363 H     1    ESP        -0.0237
     16 H           3.6626    2.1106    0.2363 H     1    ESP        -0.0246
     16 H           3.3115    2.4217    0.2363 H     1    ESP        -0.0251
     16 H           2.8962    2.6397    0.2363 H     1    ESP        -0.0250
     16 H           2.4408    2.7519    0.2363 H     1    ESP        -0.0244
     16 H           1.9717    2.7519    0.2363 H     1    ESP        -0.0228
     16 H           1.5163    2.6397    0.2363 H     1    ESP        -0.0193
     16 H           3.9291   -0.0838    0.2363 H     1    ESP        -0.0111
     16 H           4.0954    0.3548    0.2363 H     1    ESP        -0.0162
     16 H           4.1520    0.8204   -0.2363 H     1    ESP        -0.0197
     16 H           4.0954    1.2860   -0.2363 H     1    ESP        -0.0221
     16 H           3.9291    1.7246   -0.2363 H     1    ESP        -0.0237
     16 H           3.6626    2.1106   -0.2363 H     1    ESP        -0.0246
     16 H           3.3115    2.4217   -0.2363 H     1    ESP        -0.0251
     16 H           2.8962    2.6397   -0.2363 H     1    ESP        -0.0250
     16 H           2.4408    2.7519   -0.2363 H     1    ESP        -0.0244
     16 H           1.9717    2.7519   -0.2363 H     1    ESP        -0.0228
     16 H           1.5163    2.6397   -0.2363 H     1    ESP        -0.0193
     16 H           3.9291   -0.0838   -0.2363 H     1    ESP        -0.0111
     16 H           4.0954    0.3548   -0.2363 H     1    ESP        -0.0162
     16 H           4.0389    0.8204   -0.6950 H     1    ESP        -0.0194
     16 H           3.9813    1.2761   -0.6950 H     1    ESP        -0.0218
     16 H           3.8122    1.7033   -0.6950 H     1    ESP        -0.0233
     16 H           3.5422    2.0749   -0.6950 H     1    ESP        -0.0243
     16 H           3.1882    2.3677   -0.6950 H     1    ESP        -0.0247
     16 H           2.7726    2.5633   -0.6950 H     1    ESP        -0.0246
     16 H           2.3213    2.6494   -0.6950 H     1    ESP        -0.0238
     16 H           1.8629    2.6206   -0.6950 H     1    ESP        -0.0222
     16 H           1.4260    2.4786   -0.6950 H     1    ESP        -0.0190
     16 H           3.8122   -0.0625   -0.6950 H     1    ESP        -0.0104
     16 H           3.9813    0.3646   -0.6950 H     1    ESP        -0.0158
     16 H           3.8193    0.8204   -1.1134 H     1    ESP        -0.0187
     16 H           3.7540    1.2748   -1.1134 H     1    ESP        -0.0212
     16 H           3.5632    1.6925   -1.1134 H     1    ESP        -0.0228
     16 H           3.2626    2.0395   -1.1134 H     1    ESP        -0.0236
     16 H           2.8763    2.2877   -1.1134 H     1    ESP        -0.0239
     16 H           2.4358    2.4170   -1.1134 H     1    ESP        -0.0234
     16 H           1.9767    2.4170   -1.1134 H     1    ESP        -0.0223
     16 H           1.5362    2.2877   -1.1134 H     1    ESP        -0.0203
     16 H           3.7540    0.3659   -1.1134 H     1    ESP        -0.0147
     16 H           3.5060    0.8204   -1.4671 H     1    ESP        -0.0176
     16 H           3.4182    1.2899   -1.4671 H     1    ESP        -0.0204
     16 H           3.1668    1.6960   -1.4671 H     1    ESP        -0.0219
     16 H           2.7856    1.9839   -1.4671 H     1    ESP        -0.0225
     16 H           2.3262    2.1146   -1.4671 H     1    ESP        -0.0221
     16 H           1.8506    2.0705   -1.4671 H     1    ESP        -0.0208
     16 H           1.4230    1.8576   -1.4671 H     1    ESP        -0.0186
     16 H           3.4182    0.3509   -1.4671 H     1    ESP        -0.0129
     16 H           3.1171    0.8204   -1.7355 H     1    ESP        -0.0161
     16 H           2.9951    1.2758   -1.7355 H     1    ESP        -0.0191
     16 H           2.6617    1.6092   -1.7355 H     1    ESP        -0.0203
     16 H           2.2063    1.7312   -1.7355 H     1    ESP        -0.0199
     16 H           1.7508    1.6092   -1.7355 H     1    ESP        -0.0180
     16 H           1.4174    1.2758   -1.7355 H     1    ESP        -0.0143
     16 H           2.9951    0.3650   -1.7355 H     1    ESP        -0.0107
     16 H           2.6753    0.8204   -1.9030 H     1    ESP        -0.0142
     16 H           2.4408    1.2266   -1.9030 H     1    ESP        -0.0170
     16 H           1.9717    1.2266   -1.9030 H     1    ESP        -0.0154
     16 H           1.7372    0.8204   -1.9030 H     1    ESP        -0.0097
     16 H           2.4408    0.4142   -1.9030 H     1    ESP        -0.0078
     16 H           2.2063    0.8204   -1.9600 H     1    ESP        -0.0120
     16 H          -3.4077    1.4599    1.6119 H     1    ESP         0.0071
     16 H          -3.6443    1.0500    1.6119 H     1    ESP         0.0075
     16 H          -3.1710    1.9583    1.4133 H     1    ESP         0.0070
     16 H          -3.6251    1.8366    1.4133 H     1    ESP         0.0083
     16 H          -3.9576    1.5041    1.4133 H     1    ESP         0.0088
     16 H          -4.0793    1.0500    1.4133 H     1    ESP         0.0089
     16 H          -3.9576    0.5959    1.4133 H     1    ESP         0.0083
     16 H          -3.0539    2.3142    1.1002 H     1    ESP         0.0075
     16 H          -3.5185    2.2712    1.1002 H     1    ESP         0.0086
     16 H          -3.9361    2.0632    1.1002 H     1    ESP         0.0092
     16 H          -4.2505    1.7184    1.1002 H     1    ESP         0.0096
     16 H          -4.4190    1.2833    1.1002 H     1    ESP         0.0097
     16 H          -4.4190    0.8167    1.1002 H     1    ESP         0.0097
     16 H          -4.2505    0.3816    1.1002 H     1    ESP         0.0094
     16 H          -3.1710    2.5782    0.6979 H     1    ESP         0.0086
     16 H          -3.6432    2.5034    0.6979 H     1    ESP         0.0092
     16 H          -4.0693    2.2863    0.6979 H     1    ESP         0.0097
     16 H          -4.4073    1.9482    0.6979 H     1    ESP         0.0100
     16 H          -4.6244    1.5222    0.6979 H     1    ESP         0.0102
     16 H          -4.6992    1.0500    0.6979 H     1    ESP         0.0102
     16 H          -4.6244    0.5778    0.6979 H     1    ESP         0.0102
     16 H          -4.4073    0.1518    0.6979 H     1    ESP         0.0102
     16 H          -2.9344    2.6960    0.2391 H     1    ESP         0.0092
     16 H          -3.4077    2.6960    0.2391 H     1    ESP         0.0092
     16 H          -3.8618    2.5626    0.2391 H     1    ESP         0.0096
     16 H          -4.2600    2.3067    0.2391 H     1    ESP         0.0100
     16 H          -4.5699    1.9490    0.2391 H     1    ESP         0.0102
     16 H          -4.7665    1.5185    0.2391 H     1    ESP         0.0104
     16 H          -4.8339    1.0500    0.2391 H     1    ESP         0.0105
     16 H          -4.7665    0.5815    0.2391 H     1    ESP         0.0105
     16 H          -4.5699    0.1510    0.2391 H     1    ESP         0.0107
     16 H          -4.2600   -0.2067    0.2391 H     1    ESP         0.0113
     16 H          -2.9344    2.6960   -0.2391 H     1    ESP         0.0092
     16 H          -3.4077    2.6960   -0.2391 H     1    ESP         0.0092
     16 H          -3.8618    2.5626   -0.2391 H     1    ESP         0.0096
     16 H          -4.2600    2.3067   -0.2391 H     1    ESP         0.0100
     16 H          -4.5699    1.9490   -0.2391 H     1    ESP         0.0102
     16 H          -4.7665    1.5185   -0.2391 H     1    ESP         0.0104
     16 H          -4.8339    1.0500   -0.2391 H     1    ESP         0.0105
     16 H          -4.7665    0.5815   -0.2391 H     1    ESP         0.0105
     16 H          -4.5699    0.1510   -0.2391 H     1    ESP         0.0107
     16 H          -4.2600   -0.2067   -0.2391 H     1    ESP         0.0113
     16 H          -3.1710    2.5782   -0.6979 H     1    ESP         0.0086
     16 H          -3.6432    2.5034   -0.6979 H     1    ESP         0.0092
     16 H          -4.0693    2.2863   -0.6979 H     1    ESP         0.0097
     16 H          -4.4073    1.9482   -0.6979 H     1    ESP         0.0100
     16 H          -4.6244    1.5222   -0.6979 H     1    ESP         0.0102
     16 H          -4.6992    1.0500   -0.6979 H     1    ESP         0.0102
     16 H          -4.6244    0.5778   -0.6979 H     1    ESP         0.0102
     16 H          -4.4073    0.1518   -0.6979 H     1    ESP         0.0102
     16 H          -3.0539    2.3142   -1.1002 H     1    ESP         0.0075
     16 H          -3.5185    2.2712   -1.1002 H     1    ESP         0.0086
     16 H          -3.9361    2.0632   -1.1002 H     1    ESP         0.0092
     16 H          -4.2505    1.7184   -1.1002 H     1    ESP         0.0096
     16 H          -4.4190    1.2833   -1.1002 H     1    ESP         0.0097
     16 H          -4.4190    0.8167   -1.1002 H     1    ESP         0.0097
     16 H          -4.2505    0.3816   -1.1002 H     1    ESP         0.0094
     16 H          -3.1710    1.9583   -1.4133 H     1    ESP         0.0070
     16 H          -3.6251    1.8366   -1.4133 H     1    ESP         0.0083
     16 H          -3.9576    1.5041   -1.4133 H     1    ESP         0.0088
     16 H          -4.0793    1.0500   -1.4133 H     1    ESP         0.0089
     16 H          -3.9576    0.5959   -1.4133 H     1    ESP         0.0083
     16 H          -3.4077    1.4599   -1.6119 H     1    ESP         0.0071
     16 H          -3.6443    1.0500   -1.6119 H     1    ESP         0.0075
     16 H          -3.4465   -1.5752    1.6119 H     1    ESP         0.0061
     16 H          -3.2098   -1.9851    1.6119 H     1    ESP         0.0063
     16 H          -3.7598   -1.1211    1.4133 H     1    ESP         0.0065
     16 H          -3.8815   -1.5752    1.4133 H     1    ESP         0.0074
     16 H          -3.7598   -2.0294    1.4133 H     1    ESP         0.0077
     16 H          -3.4273   -2.3618    1.4133 H     1    ESP         0.0077
     16 H          -2.9732   -2.4835    1.4133 H     1    ESP         0.0073
     16 H          -4.0527   -0.9068    1.1002 H     1    ESP         0.0078
     16 H          -4.2212   -1.3419    1.1002 H     1    ESP         0.0082
     16 H          -4.2212   -1.8085    1.1002 H     1    ESP         0.0084
     16 H          -4.0527   -2.2436    1.1002 H     1    ESP         0.0085
     16 H          -3.7383   -2.5884    1.1002 H     1    ESP         0.0085
     16 H          -3.3206   -2.7964    1.1002 H     1    ESP         0.0084
     16 H          -2.8560   -2.8395    1.1002 H     1    ESP         0.0083
     16 H          -2.4072   -2.7118    1.1002 H     1    ESP         0.0078
     16 H          -4.2095   -0.6770    0.6979 H     1    ESP         0.0092
     16 H          -4.4266   -1.1030    0.6979 H     1    ESP         0.0089
     16 H          -4.5014   -1.5752    0.6979 H     1    ESP         0.0088
     16 H          -4.4266   -2.0475    0.6979 H     1    ESP         0.0089
     16 H          -4.2095   -2.4735    0.6979 H     1    ESP         0.0089
     16 H          -3.8714   -2.8116    0.6979 H     1    ESP         0.0090
     16 H          -3.4454   -3.0286    0.6979 H     1    ESP         0.0090
     16 H          -2.9732   -3.1034    0.6979 H     1    ESP         0.0090
     16 H          -2.5009   -3.0286    0.6979 H     1    ESP         0.0092
     16 H          -4.3721   -0.6762    0.2391 H     1    ESP         0.0100
     16 H          -4.5687   -1.1067    0.2391 H     1    ESP         0.0093
     16 H          -4.6361   -1.5752    0.2391 H     1    ESP         0.0091
     16 H          -4.5687   -2.0437    0.2391 H     1    ESP         0.0091
     16 H          -4.3721   -2.4743    0.2391 H     1    ESP         0.0091
     16 H          -4.0621   -2.8320    0.2391 H     1    ESP         0.0092
     16 H          -3.6640   -3.0879    0.2391 H     1    ESP         0.0092
     16 H          -3.2098   -3.2212    0.2391 H     1    ESP         0.0093
     16 H          -2.7365   -3.2212    0.2391 H     1    ESP         0.0096
     16 H          -2.2824   -3.0879    0.2391 H     1    ESP         0.0104
     16 H          -4.3721   -0.6762   -0.2391 H     1    ESP         0.0100
     16 H          -4.5687   -1.1067   -0.2391 H     1    ESP         0.0093
     16 H          -4.6361   -1.5752   -0.2391 H     1    ESP         0.0091
     16 H          -4.5687   -2.0437   -0.2391 H     1    ESP         0.0091
     16 H          -4.3721   -2.4743   -0.2391 H     1    ESP         0.0091
     16 H          -4.0621   -2.8320   -0.2391 H     1    ESP         0.0092
     16 H          -3.6640   -3.0879   -0.2391 H     1    ESP         0.0092
     16 H          -3.2098   -3.2212   -0.2391 H     1    ESP         0.0093
     16 H          -2.7365   -3.2212   -0.2391 H     1    ESP         0.0096
     16 H          -2.2824   -3.0879   -0.2391 H     1    ESP         0.0104
     16 H          -4.2095   -0.6770   -0.6979 H     1    ESP         0.0092
     16 H          -4.4266   -1.1030   -0.6979 H     1    ESP         0.0089
     16 H          -4.5014   -1.5752   -0.6979 H     1    ESP         0.0088
     16 H          -4.4266   -2.0475   -0.6979 H     1    ESP         0.0089
     16 H          -4.2095   -2.4735   -0.6979 H     1    ESP         0.0089
     16 H          -3.8714   -2.8116   -0.6979 H     1    ESP         0.0090
     16 H          -3.4454   -3.0286   -0.6979 H     1    ESP         0.0090
     16 H          -2.9732   -3.1034   -0.6979 H     1    ESP         0.0090
     16 H          -2.5009   -3.0286   -0.6979 H     1    ESP         0.0092
     16 H          -4.0527   -0.9068   -1.1002 H     1    ESP         0.0078
     16 H          -4.2212   -1.3419   -1.1002 H     1    ESP         0.0082
     16 H          -4.2212   -1.8085   -1.1002 H     1    ESP         0.0084
     16 H          -4.0527   -2.2436   -1.1002 H     1    ESP         0.0085
     16 H          -3.7383   -2.5884   -1.1002 H     1    ESP         0.0085
     16 H          -3.3206   -2.7964   -1.1002 H     1    ESP         0.0084
     16 H          -2.8560   -2.8395   -1.1002 H     1    ESP         0.0083
     16 H          -2.4072   -2.7118   -1.1002 H     1    ESP         0.0078
     16 H          -3.7598   -1.1211   -1.4133 H     1    ESP         0.0065
     16 H          -3.8815   -1.5752   -1.4133 H     1    ESP         0.0074
     16 H          -3.7598   -2.0294   -1.4133 H     1    ESP         0.0077
     16 H          -3.4273   -2.3618   -1.4133 H     1    ESP         0.0077
     16 H          -2.9732   -2.4835   -1.4133 H     1    ESP         0.0073
     16 H          -3.4465   -1.5752   -1.6119 H     1    ESP         0.0061
     16 H          -3.2098   -1.9851   -1.6119 H     1    ESP         0.0063
     16 H          -0.7026   -2.7592    1.6119 H     1    ESP         0.0086
     16 H          -0.2293   -2.7592    1.6119 H     1    ESP         0.0097
     16 H           0.4423   -2.3493    1.4133 H     1    ESP         0.0126
     16 H          -1.2525   -2.8034    1.4133 H     1    ESP         0.0081
     16 H          -0.9201   -3.1359    1.4133 H     1    ESP         0.0093
     16 H          -0.4660   -3.2576    1.4133 H     1    ESP         0.0102
     16 H          -0.0118   -3.1359    1.4133 H     1    ESP         0.0110
     16 H           0.3206   -2.8034    1.4133 H     1    ESP         0.0119
     16 H          -1.5454   -3.0177    1.1002 H     1    ESP         0.0091
     16 H          -1.2311   -3.3625    1.1002 H     1    ESP         0.0098
     16 H          -0.8134   -3.5705    1.1002 H     1    ESP         0.0103
     16 H          -0.3488   -3.6135    1.1002 H     1    ESP         0.0109
     16 H           0.1000   -3.4858    1.1002 H     1    ESP         0.0116
     16 H           0.4723   -3.2046    1.1002 H     1    ESP         0.0128
     16 H          -1.7023   -3.2475    0.6979 H     1    ESP         0.0101
     16 H          -1.3642   -3.5856    0.6979 H     1    ESP         0.0103
     16 H          -0.9382   -3.8027    0.6979 H     1    ESP         0.0106
     16 H          -0.4660   -3.8775    0.6979 H     1    ESP         0.0110
     16 H           0.0063   -3.8027    0.6979 H     1    ESP         0.0117
     16 H           0.4323   -3.5856    0.6979 H     1    ESP         0.0128
     16 H          -1.8649   -3.2483    0.2391 H     1    ESP         0.0108
     16 H          -1.5549   -3.6060    0.2391 H     1    ESP         0.0105
     16 H          -1.1567   -3.8619    0.2391 H     1    ESP         0.0106
     16 H          -0.7026   -3.9953    0.2391 H     1    ESP         0.0109
     16 H          -0.2293   -3.9953    0.2391 H     1    ESP         0.0114
     16 H           0.2248   -3.8619    0.2391 H     1    ESP         0.0122
     16 H          -1.8649   -3.2483   -0.2391 H     1    ESP         0.0108
     16 H          -1.5549   -3.6060   -0.2391 H     1    ESP         0.0105
     16 H          -1.1567   -3.8619   -0.2391 H     1    ESP         0.0106
     16 H          -0.7026   -3.9953   -0.2391 H     1    ESP         0.0109
     16 H          -0.2293   -3.9953   -0.2391 H     1    ESP         0.0114
     16 H           0.2248   -3.8619   -0.2391 H     1    ESP         0.0122
     16 H          -1.7023   -3.2475   -0.6979 H     1    ESP         0.0101
     16 H          -1.3642   -3.5856   -0.6979 H     1    ESP         0.0103
     16 H          -0.9382   -3.8027   -0.6979 H     1    ESP         0.0106
     16 H          -0.4660   -3.8775   -0.6979 H     1    ESP         0.0110
     16 H           0.0063   -3.8027   -0.6979 H     1    ESP         0.0117
     16 H           0.4323   -3.5856   -0.6979 H     1    ESP         0.0128
     16 H          -1.5454   -3.0177   -1.1002 H     1    ESP         0.0091
     16 H          -1.2311   -3.3625   -1.1002 H     1    ESP         0.0098
     16 H          -0.8134   -3.5705   -1.1002 H     1    ESP         0.0103
     16 H          -0.3488   -3.6135   -1.1002 H     1    ESP         0.0109
     16 H           0.1000   -3.4858   -1.1002 H     1    ESP         0.0116
     16 H           0.4723   -3.2046   -1.1002 H     1    ESP         0.0128
     16 H           0.4423   -2.3493   -1.4133 H     1    ESP         0.0126
     16 H          -1.2525   -2.8034   -1.4133 H     1    ESP         0.0081
     16 H          -0.9201   -3.1359   -1.4133 H     1    ESP         0.0093
     16 H          -0.4660   -3.2576   -1.4133 H     1    ESP         0.0102
     16 H          -0.0118   -3.1359   -1.4133 H     1    ESP         0.0110
     16 H           0.3206   -2.8034   -1.4133 H     1    ESP         0.0119
     16 H          -0.7026   -2.7592   -1.6119 H     1    ESP         0.0086
     16 H          -0.2293   -2.7592   -1.6119 H     1    ESP         0.0097
     16 H           1.2386   -2.4476    1.6119 H     1    ESP         0.0105
     16 H           1.4753   -2.8575    1.6119 H     1    ESP         0.0086
     16 H           1.9486   -2.8575    1.6119 H     1    ESP         0.0079
     16 H           0.8037   -2.4476    1.4133 H     1    ESP         0.0124
     16 H           0.9253   -2.9017    1.4133 H     1    ESP         0.0105
     16 H           1.2578   -3.2342    1.4133 H     1    ESP         0.0085
     16 H           1.7119   -3.3559    1.4133 H     1    ESP         0.0073
     16 H           2.1661   -3.2342    1.4133 H     1    ESP         0.0068
     16 H           0.6324   -3.1160    1.1002 H     1    ESP         0.0129
     16 H           0.9468   -3.4608    1.1002 H     1    ESP         0.0097
     16 H           1.3645   -3.6688    1.1002 H     1    ESP         0.0077
     16 H           1.8291   -3.7119    1.1002 H     1    ESP         0.0067
     16 H           2.2779   -3.5842    1.1002 H     1    ESP         0.0062
     16 H           0.8137   -3.6839    0.6979 H     1    ESP         0.0105
     16 H           1.2397   -3.9010    0.6979 H     1    ESP         0.0080
     16 H           1.7119   -3.9758    0.6979 H     1    ESP         0.0067
     16 H           2.1842   -3.9010    0.6979 H     1    ESP         0.0060
     16 H           2.6102   -3.6839    0.6979 H     1    ESP         0.0056
     16 H           0.6230   -3.7043    0.2391 H     1    ESP         0.0125
     16 H           1.0211   -3.9602    0.2391 H     1    ESP         0.0089
     16 H           1.4753   -4.0936    0.2391 H     1    ESP         0.0071
     16 H           1.9486   -4.0936    0.2391 H     1    ESP         0.0062
     16 H           2.4027   -3.9602    0.2391 H     1    ESP         0.0056
     16 H           2.8009   -3.7043    0.2391 H     1    ESP         0.0054
     16 H           0.6230   -3.7043   -0.2391 H     1    ESP         0.0125
     16 H           1.0211   -3.9602   -0.2391 H     1    ESP         0.0089
     16 H           1.4753   -4.0936   -0.2391 H     1    ESP         0.0071
     16 H           1.9486   -4.0936   -0.2391 H     1    ESP         0.0062
     16 H           2.4027   -3.9602   -0.2391 H     1    ESP         0.0056
     16 H           2.8009   -3.7043   -0.2391 H     1    ESP         0.0054
     16 H           0.8137   -3.6839   -0.6979 H     1    ESP         0.0105
     16 H           1.2397   -3.9010   -0.6979 H     1    ESP         0.0080
     16 H           1.7119   -3.9758   -0.6979 H     1    ESP         0.0067
     16 H           2.1842   -3.9010   -0.6979 H     1    ESP         0.0060
     16 H           2.6102   -3.6839   -0.6979 H     1    ESP         0.0056
     16 H           0.6324   -3.1160   -1.1002 H     1    ESP         0.0129
     16 H           0.9468   -3.4608   -1.1002 H     1    ESP         0.0097
     16 H           1.3645   -3.6688   -1.1002 H     1    ESP         0.0077
     16 H           1.8291   -3.7119   -1.1002 H     1    ESP         0.0067
     16 H           2.2779   -3.5842   -1.1002 H     1    ESP         0.0062
     16 H           0.8037   -2.4476   -1.4133 H     1    ESP         0.0124
     16 H           0.9253   -2.9017   -1.4133 H     1    ESP         0.0105
     16 H           1.2578   -3.2342   -1.4133 H     1    ESP         0.0085
     16 H           1.7119   -3.3559   -1.4133 H     1    ESP         0.0073
     16 H           2.1661   -3.2342   -1.4133 H     1    ESP         0.0068
     16 H           1.2386   -2.4476   -1.6119 H     1    ESP         0.0105
     16 H           1.4753   -2.8575   -1.6119 H     1    ESP         0.0086
     16 H           1.9486   -2.8575   -1.6119 H     1    ESP         0.0079
     16 H           4.5245   -1.5849   -0.1836 H     1    ESP         0.0022
     16 H           4.4497   -1.1127   -0.1836 H     1    ESP         0.0010
     16 H           4.2326   -2.4831   -0.1836 H     1    ESP         0.0036
     16 H           4.4497   -2.0571   -0.1836 H     1    ESP         0.0030
     16 H           4.6592   -1.5849   -0.6424 H     1    ESP         0.0018
     16 H           4.5918   -1.1164   -0.6424 H     1    ESP         0.0007
     16 H           4.3952   -0.6859   -0.6424 H     1    ESP        -0.0012
     16 H           4.0853   -0.3282   -0.6424 H     1    ESP        -0.0048
     16 H           3.6871   -3.0975   -0.6424 H     1    ESP         0.0043
     16 H           4.0853   -2.8416   -0.6424 H     1    ESP         0.0037
     16 H           4.3952   -2.4839   -0.6424 H     1    ESP         0.0031
     16 H           4.5918   -2.0534   -0.6424 H     1    ESP         0.0026
     16 H           4.6592   -1.5849   -1.1206 H     1    ESP         0.0018
     16 H           4.5918   -1.1164   -1.1206 H     1    ESP         0.0008
     16 H           4.3952   -0.6859   -1.1206 H     1    ESP        -0.0008
     16 H           4.0853   -0.3282   -1.1206 H     1    ESP        -0.0034
     16 H           3.6871   -0.0723   -1.1206 H     1    ESP        -0.0077
     16 H           3.2329   -3.2309   -1.1206 H     1    ESP         0.0049
     16 H           3.6871   -3.0975   -1.1206 H     1    ESP         0.0041
     16 H           4.0853   -2.8416   -1.1206 H     1    ESP         0.0035
     16 H           4.3952   -2.4839   -1.1206 H     1    ESP         0.0030
     16 H           4.5918   -2.0534   -1.1206 H     1    ESP         0.0025
     16 H           4.5245   -1.5849   -1.5794 H     1    ESP         0.0019
     16 H           4.4497   -1.1127   -1.5794 H     1    ESP         0.0010
     16 H           4.2326   -0.6866   -1.5794 H     1    ESP        -0.0002
     16 H           3.8945   -0.3486   -1.5794 H     1    ESP        -0.0020
     16 H           3.4685   -0.1315   -1.5794 H     1    ESP        -0.0040
     16 H           2.9963   -0.0567   -1.5794 H     1    ESP        -0.0039
     16 H           2.5241   -3.0383   -1.5794 H     1    ESP         0.0062
     16 H           2.9963   -3.1131   -1.5794 H     1    ESP         0.0050
     16 H           3.4685   -3.0383   -1.5794 H     1    ESP         0.0042
     16 H           3.8945   -2.8212   -1.5794 H     1    ESP         0.0036
     16 H           4.2326   -2.4831   -1.5794 H     1    ESP         0.0031
     16 H           4.4497   -2.0571   -1.5794 H     1    ESP         0.0025
     16 H           4.2660   -1.5849   -1.9817 H     1    ESP         0.0021
     16 H           4.1802   -1.1262   -1.9817 H     1    ESP         0.0014
     16 H           3.9346   -0.7295   -1.9817 H     1    ESP         0.0006
     16 H           3.5622   -0.4483   -1.9817 H     1    ESP        -0.0002
     16 H           3.1134   -0.3206   -1.9817 H     1    ESP         0.0002
     16 H           2.6488   -0.3637   -1.9817 H     1    ESP         0.0034
     16 H           2.2312   -0.5717   -1.9817 H     1    ESP         0.0087
     16 H           1.9168   -0.9165   -1.9817 H     1    ESP         0.0120
     16 H           1.9168   -2.2533   -1.9817 H     1    ESP         0.0081
     16 H           2.2312   -2.5981   -1.9817 H     1    ESP         0.0066
     16 H           2.6488   -2.8061   -1.9817 H     1    ESP         0.0054
     16 H           3.1134   -2.8491   -1.9817 H     1    ESP         0.0045
     16 H           3.5622   -2.7214   -1.9817 H     1    ESP         0.0038
     16 H           3.9346   -2.4403   -1.9817 H     1    ESP         0.0032
     16 H           4.1802   -2.0435   -1.9817 H     1    ESP         0.0027
     16 H           3.9046   -1.5849   -2.2948 H     1    ESP         0.0025
     16 H           3.7829   -1.1307   -2.2948 H     1    ESP         0.0020
     16 H           3.4504   -0.7983   -2.2948 H     1    ESP         0.0017
     16 H           2.9963   -0.6766   -2.2948 H     1    ESP         0.0026
     16 H           2.5422   -0.7983   -2.2948 H     1    ESP         0.0050
     16 H           2.2097   -1.1307   -2.2948 H     1    ESP         0.0070
     16 H           2.0880   -1.5849   -2.2948 H     1    ESP         0.0073
     16 H           2.2097   -2.0390   -2.2948 H     1    ESP         0.0064
     16 H           2.5422   -2.3715   -2.2948 H     1    ESP         0.0054
     16 H           2.9963   -2.4932   -2.2948 H     1    ESP         0.0044
     16 H           3.4504   -2.3715   -2.2948 H     1    ESP         0.0037
     16 H           3.7829   -2.0390   -2.2948 H     1    ESP         0.0031
     16 H           3.4696   -1.5849   -2.4934 H     1    ESP         0.0031
     16 H           3.2329   -1.1750   -2.4934 H     1    ESP         0.0030
     16 H           2.7596   -1.1750   -2.4934 H     1    ESP         0.0042
     16 H           2.5230   -1.5849   -2.4934 H     1    ESP         0.0052
     16 H           2.7596   -1.9948   -2.4934 H     1    ESP         0.0046
     16 H           3.2329   -1.9948   -2.4934 H     1    ESP         0.0037
     16 H           2.9963   -1.5849   -2.5615 H     1    ESP         0.0039
     16 H           2.9963   -1.5849    2.5615 H     1    ESP         0.0039
     16 H           3.4696   -1.5849    2.4934 H     1    ESP         0.0031
     16 H           3.2329   -1.1750    2.4934 H     1    ESP         0.0030
     16 H           2.7596   -1.1750    2.4934 H     1    ESP         0.0042
     16 H           2.5230   -1.5849    2.4934 H     1    ESP         0.0052
     16 H           2.7596   -1.9948    2.4934 H     1    ESP         0.0046
     16 H           3.2329   -1.9948    2.4934 H     1    ESP         0.0037
     16 H           3.9046   -1.5849    2.2948 H     1    ESP         0.0025
     16 H           3.7829   -1.1307    2.2948 H     1    ESP         0.0020
     16 H           3.4504   -0.7983    2.2948 H     1    ESP         0.0017
     16 H           2.9963   -0.6766    2.2948 H     1    ESP         0.0026
     16 H           2.5422   -0.7983    2.2948 H     1    ESP         0.0050
     16 H           2.2097   -1.1307    2.2948 H     1    ESP         0.0070
     16 H           2.0880   -1.5849    2.2948 H     1    ESP         0.0073
     16 H           2.2097   -2.0390    2.2948 H     1    ESP         0.0064
     16 H           2.5422   -2.3715    2.2948 H     1    ESP         0.0054
     16 H           2.9963   -2.4932    2.2948 H     1    ESP         0.0044
     16 H           3.4504   -2.3715    2.2948 H     1    ESP         0.0037
     16 H           3.7829   -2.0390    2.2948 H     1    ESP         0.0031
     16 H           4.2660   -1.5849    1.9817 H     1    ESP         0.0021
     16 H           4.1802   -1.1262    1.9817 H     1    ESP         0.0014
     16 H           3.9346   -0.7295    1.9817 H     1    ESP         0.0006
     16 H           3.5622   -0.4483    1.9817 H     1    ESP        -0.0002
     16 H           3.1134   -0.3206    1.9817 H     1    ESP         0.0002
     16 H           2.6488   -0.3637    1.9817 H     1    ESP         0.0034
     16 H           2.2312   -0.5717    1.9817 H     1    ESP         0.0087
     16 H           1.9168   -0.9165    1.9817 H     1    ESP         0.0120
     16 H           1.9168   -2.2533    1.9817 H     1    ESP         0.0081
     16 H           2.2312   -2.5981    1.9817 H     1    ESP         0.0066
     16 H           2.6488   -2.8061    1.9817 H     1    ESP         0.0054
     16 H           3.1134   -2.8491    1.9817 H     1    ESP         0.0045
     16 H           3.5622   -2.7214    1.9817 H     1    ESP         0.0038
     16 H           3.9346   -2.4403    1.9817 H     1    ESP         0.0032
     16 H           4.1802   -2.0435    1.9817 H     1    ESP         0.0027
     16 H           4.5245   -1.5849    1.5794 H     1    ESP         0.0019
     16 H           4.4497   -1.1127    1.5794 H     1    ESP         0.0010
     16 H           4.2326   -0.6866    1.5794 H     1    ESP        -0.0002
     16 H           3.8945   -0.3486    1.5794 H     1    ESP        -0.0020
     16 H           3.4685   -0.1315    1.5794 H     1    ESP        -0.0040
     16 H           2.9963   -0.0567    1.5794 H     1    ESP        -0.0039
     16 H           2.5241   -3.0383    1.5794 H     1    ESP         0.0062
     16 H           2.9963   -3.1131    1.5794 H     1    ESP         0.0050
     16 H           3.4685   -3.0383    1.5794 H     1    ESP         0.0042
     16 H           3.8945   -2.8212    1.5794 H     1    ESP         0.0036
     16 H           4.2326   -2.4831    1.5794 H     1    ESP         0.0031
     16 H           4.4497   -2.0571    1.5794 H     1    ESP         0.0025
     16 H           4.6592   -1.5849    1.1206 H     1    ESP         0.0018
     16 H           4.5918   -1.1164    1.1206 H     1    ESP         0.0008
     16 H           4.3952   -0.6859    1.1206 H     1    ESP        -0.0008
     16 H           4.0853   -0.3282    1.1206 H     1    ESP        -0.0034
     16 H           3.6871   -0.0723    1.1206 H     1    ESP        -0.0077
     16 H           3.2329   -3.2309    1.1206 H     1    ESP         0.0049
     16 H           3.6871   -3.0975    1.1206 H     1    ESP         0.0041
     16 H           4.0853   -2.8416    1.1206 H     1    ESP         0.0035
     16 H           4.3952   -2.4839    1.1206 H     1    ESP         0.0030
     16 H           4.5918   -2.0534    1.1206 H     1    ESP         0.0025
     16 H           4.6592   -1.5849    0.6424 H     1    ESP         0.0018
     16 H           4.5918   -1.1164    0.6424 H     1    ESP         0.0007
     16 H           4.3952   -0.6859    0.6424 H     1    ESP        -0.0012
     16 H           4.0853   -0.3282    0.6424 H     1    ESP        -0.0048
     16 H           3.6871   -3.0975    0.6424 H     1    ESP         0.0043
     16 H           4.0853   -2.8416    0.6424 H     1    ESP         0.0037
     16 H           4.3952   -2.4839    0.6424 H     1    ESP         0.0031
     16 H           4.5918   -2.0534    0.6424 H     1    ESP         0.0026
     16 H           4.5245   -1.5849    0.1836 H     1    ESP         0.0022
     16 H           4.4497   -1.1127    0.1836 H     1    ESP         0.0010
     16 H           4.2326   -2.4831    0.1836 H     1    ESP         0.0036
     16 H           4.4497   -2.0571    0.1836 H     1    ESP         0.0030
     16 H          -0.7265    1.2774    2.8000 H     1    ESP        -0.0042
     16 H          -0.2656    1.2774    2.7618 H     1    ESP        -0.0045
     16 H          -0.4961    1.6765    2.7618 H     1    ESP        -0.0043
     16 H          -0.9569    1.6765    2.7618 H     1    ESP        -0.0039
     16 H          -1.1874    1.2774    2.7618 H     1    ESP        -0.0039
     16 H          -0.9569    0.8783    2.7618 H     1    ESP        -0.0042
     16 H          -0.4961    0.8783    2.7618 H     1    ESP        -0.0043
     16 H           0.1827    1.2774    2.6483 H     1    ESP        -0.0049
     16 H           0.0609    1.7320    2.6483 H     1    ESP        -0.0050
     16 H          -0.2719    2.0647    2.6483 H     1    ESP        -0.0045
     16 H          -0.7265    2.1866    2.6483 H     1    ESP        -0.0039
     16 H          -1.1811    2.0647    2.6483 H     1    ESP        -0.0034
     16 H          -1.5138    1.7320    2.6483 H     1    ESP        -0.0032
     16 H          -1.6357    1.2774    2.6483 H     1    ESP        -0.0033
     16 H          -1.5138    0.8228    2.6483 H     1    ESP        -0.0039
     16 H          -1.1811    0.4900    2.6483 H     1    ESP        -0.0044
     16 H          -0.7265    0.3682    2.6483 H     1    ESP        -0.0044
     16 H          -0.2719    0.4900    2.6483 H     1    ESP        -0.0042
     16 H           0.0609    0.8228    2.6483 H     1    ESP        -0.0044
     16 H           0.6062    1.2774    2.4625 H     1    ESP        -0.0056
     16 H           0.5258    1.7332    2.4625 H     1    ESP        -0.0060
     16 H           0.2944    2.1340    2.4625 H     1    ESP        -0.0055
     16 H          -0.0602    2.4315    2.4625 H     1    ESP        -0.0047
     16 H          -0.4951    2.5898    2.4625 H     1    ESP        -0.0040
     16 H          -0.9579    2.5898    2.4625 H     1    ESP        -0.0033
     16 H          -1.3928    2.4315    2.4625 H     1    ESP        -0.0027
     16 H          -1.7474    2.1340    2.4625 H     1    ESP        -0.0024
     16 H          -1.9788    1.7332    2.4625 H     1    ESP        -0.0022
     16 H          -2.0591    1.2774    2.4625 H     1    ESP        -0.0025
     16 H          -1.9788    0.8216    2.4625 H     1    ESP        -0.0033
     16 H          -1.7474    0.4208    2.4625 H     1    ESP        -0.0042
     16 H          -1.3928    0.1233    2.4625 H     1    ESP        -0.0048
     16 H          -0.9579   -0.0350    2.4625 H     1    ESP        -0.0048
     16 H          -0.4951   -0.0350    2.4625 H     1    ESP        -0.0042
     16 H          -0.0602    0.1233    2.4625 H     1    ESP        -0.0034
     16 H           0.2944    0.4208    2.4625 H     1    ESP        -0.0034
     16 H           0.5258    0.8216    2.4625 H     1    ESP        -0.0044
     16 H           0.9933    1.2774    2.2096 H     1    ESP        -0.0072
     16 H           0.9295    1.7414    2.2096 H     1    ESP        -0.0078
     16 H           0.7429    2.1710    2.2096 H     1    ESP        -0.0070
     16 H           0.4474    2.5343    2.2096 H     1    ESP        -0.0059
     16 H           0.0647    2.8044    2.2096 H     1    ESP        -0.0048
     16 H          -0.3766    2.9612    2.2096 H     1    ESP        -0.0038
     16 H          -0.8439    2.9932    2.2096 H     1    ESP        -0.0030
     16 H          -1.3024    2.8979    2.2096 H     1    ESP        -0.0023
     16 H          -1.7183    2.6824    2.2096 H     1    ESP        -0.0017
     16 H          -2.0606    2.3627    2.2096 H     1    ESP        -0.0013
     16 H          -2.3039    1.9626    2.2096 H     1    ESP        -0.0009
     16 H          -2.4303    1.5116    2.2096 H     1    ESP        -0.0009
     16 H          -1.3024   -0.3431    2.2096 H     1    ESP        -0.0057
     16 H           0.9295    0.8134    2.2096 H     1    ESP        -0.0047
     16 H           1.2819    1.7358    1.8964 H     1    ESP        -0.0117
     16 H           1.1295    2.1712    1.8964 H     1    ESP        -0.0098
     16 H           0.8841    2.5618    1.8964 H     1    ESP        -0.0077
     16 H           0.5579    2.8880    1.8964 H     1    ESP        -0.0060
     16 H           0.1673    3.1334    1.8964 H     1    ESP        -0.0047
     16 H          -0.2681    3.2858    1.8964 H     1    ESP        -0.0037
     16 H          -0.7265    3.3374    1.8964 H     1    ESP        -0.0027
     16 H          -1.1849    3.2858    1.8964 H     1    ESP        -0.0019
     16 H          -1.6203    3.1334    1.8964 H     1    ESP        -0.0012
     16 H          -2.0109    2.8880    1.8964 H     1    ESP        -0.0005
     16 H          -2.3371    2.5618    1.8964 H     1    ESP         0.0001
     16 H          -2.5825    2.1712    1.8964 H     1    ESP         0.0009
     16 H           1.2225    2.5797    1.5315 H     1    ESP        -0.0106
     16 H           0.9310    2.9349    1.5315 H     1    ESP        -0.0076
     16 H           0.5758    3.2264    1.5315 H     1    ESP        -0.0057
     16 H           0.1705    3.4430    1.5315 H     1    ESP        -0.0043
     16 H          -0.2692    3.5764    1.5315 H     1    ESP        -0.0032
     16 H          -0.7265    3.6215    1.5315 H     1    ESP        -0.0022
     16 H          -1.1838    3.5764    1.5315 H     1    ESP        -0.0012
     16 H          -1.6235    3.4430    1.5315 H     1    ESP        -0.0003
     16 H          -2.0288    3.2264    1.5315 H     1    ESP         0.0005
     16 H          -2.3840    2.9349    1.5315 H     1    ESP         0.0012
     16 H          -2.6755    2.5797    1.5315 H     1    ESP         0.0023
     16 H           1.2045    2.9645    1.1247 H     1    ESP        -0.0097
     16 H           0.8722    3.2821    1.1247 H     1    ESP        -0.0067
     16 H           0.4886    3.5354    1.1247 H     1    ESP        -0.0049
     16 H           0.0659    3.7161    1.1247 H     1    ESP        -0.0036
     16 H          -0.3823    3.8184    1.1247 H     1    ESP        -0.0025
     16 H          -0.8415    3.8390    1.1247 H     1    ESP        -0.0013
     16 H          -1.2971    3.7773    1.1247 H     1    ESP        -0.0002
     16 H          -1.7343    3.6352    1.1247 H     1    ESP         0.0009
     16 H          -2.1391    3.4174    1.1247 H     1    ESP         0.0018
     16 H          -2.4985    3.1308    1.1247 H     1    ESP         0.0026
     16 H          -2.8009    2.7846    1.1247 H     1    ESP         0.0040
     16 H           1.3853    2.9826    0.6874 H     1    ESP        -0.0118
     16 H           1.0668    3.3150    0.6874 H     1    ESP        -0.0076
     16 H           0.6966    3.5887    0.6874 H     1    ESP        -0.0054
     16 H           0.2856    3.7960    0.6874 H     1    ESP        -0.0039
     16 H          -0.1546    3.9308    0.6874 H     1    ESP        -0.0027
     16 H          -0.6113    3.9893    0.6874 H     1    ESP        -0.0014
     16 H          -1.0713    3.9697    0.6874 H     1    ESP        -0.0001
     16 H          -1.5213    3.8727    0.6874 H     1    ESP         0.0013
     16 H          -1.9485    3.7011    0.6874 H     1    ESP         0.0024
     16 H          -2.3405    3.4597    0.6874 H     1    ESP         0.0033
     16 H          -2.6861    3.1555    0.6874 H     1    ESP         0.0043
     16 H           1.4756    2.9913    0.2312 H     1    ESP        -0.0132
     16 H           1.1634    3.3304    0.2312 H     1    ESP        -0.0082
     16 H           0.7997    3.6135    0.2312 H     1    ESP        -0.0056
     16 H           0.3944    3.8328    0.2312 H     1    ESP        -0.0040
     16 H          -0.0415    3.9824    0.2312 H     1    ESP        -0.0028
     16 H          -0.4961    4.0583    0.2312 H     1    ESP        -0.0015
     16 H          -0.9569    4.0583    0.2312 H     1    ESP        -0.0001
     16 H          -1.4115    3.9824    0.2312 H     1    ESP         0.0014
     16 H          -1.8474    3.8328    0.2312 H     1    ESP         0.0028
     16 H          -2.2527    3.6135    0.2312 H     1    ESP         0.0038
     16 H          -2.6164    3.3304    0.2312 H     1    ESP         0.0047
     16 H          -2.9285    2.9913    0.2312 H     1    ESP         0.0064
     16 H           1.4756    2.9913   -0.2312 H     1    ESP        -0.0132
     16 H           1.1634    3.3304   -0.2312 H     1    ESP        -0.0082
     16 H           0.7997    3.6135   -0.2312 H     1    ESP        -0.0056
     16 H           0.3944    3.8328   -0.2312 H     1    ESP        -0.0040
     16 H          -0.0415    3.9824   -0.2312 H     1    ESP        -0.0028
     16 H          -0.4961    4.0583   -0.2312 H     1    ESP        -0.0015
     16 H          -0.9569    4.0583   -0.2312 H     1    ESP        -0.0001
     16 H          -1.4115    3.9824   -0.2312 H     1    ESP         0.0014
     16 H          -1.8474    3.8328   -0.2312 H     1    ESP         0.0028
     16 H          -2.2527    3.6135   -0.2312 H     1    ESP         0.0038
     16 H          -2.6164    3.3304   -0.2312 H     1    ESP         0.0047
     16 H          -2.9285    2.9913   -0.2312 H     1    ESP         0.0064
     16 H           1.3853    2.9826   -0.6874 H     1    ESP        -0.0118
     16 H           1.0668    3.3150   -0.6874 H     1    ESP        -0.0076
     16 H           0.6966    3.5887   -0.6874 H     1    ESP        -0.0054
     16 H           0.2856    3.7960   -0.6874 H     1    ESP        -0.0039
     16 H          -0.1546    3.9308   -0.6874 H     1    ESP        -0.0027
     16 H          -0.6113    3.9893   -0.6874 H     1    ESP        -0.0014
     16 H          -1.0713    3.9697   -0.6874 H     1    ESP        -0.0001
     16 H          -1.5213    3.8727   -0.6874 H     1    ESP         0.0013
     16 H          -1.9485    3.7011   -0.6874 H     1    ESP         0.0024
     16 H          -2.3405    3.4597   -0.6874 H     1    ESP         0.0033
     16 H          -2.6861    3.1555   -0.6874 H     1    ESP         0.0043
     16 H           1.2045    2.9645   -1.1247 H     1    ESP        -0.0097
     16 H           0.8722    3.2821   -1.1247 H     1    ESP        -0.0067
     16 H           0.4886    3.5354   -1.1247 H     1    ESP        -0.0049
     16 H           0.0659    3.7161   -1.1247 H     1    ESP        -0.0036
     16 H          -0.3823    3.8184   -1.1247 H     1    ESP        -0.0025
     16 H          -0.8415    3.8390   -1.1247 H     1    ESP        -0.0013
     16 H          -1.2971    3.7773   -1.1247 H     1    ESP        -0.0002
     16 H          -1.7343    3.6352   -1.1247 H     1    ESP         0.0009
     16 H          -2.1391    3.4174   -1.1247 H     1    ESP         0.0018
     16 H          -2.4985    3.1308   -1.1247 H     1    ESP         0.0026
     16 H          -2.8009    2.7846   -1.1247 H     1    ESP         0.0040
     16 H           1.2225    2.5797   -1.5315 H     1    ESP        -0.0106
     16 H           0.9310    2.9349   -1.5315 H     1    ESP        -0.0076
     16 H           0.5758    3.2264   -1.5315 H     1    ESP        -0.0057
     16 H           0.1705    3.4430   -1.5315 H     1    ESP        -0.0043
     16 H          -0.2692    3.5764   -1.5315 H     1    ESP        -0.0032
     16 H          -0.7265    3.6215   -1.5315 H     1    ESP        -0.0022
     16 H          -1.1838    3.5764   -1.5315 H     1    ESP        -0.0012
     16 H          -1.6235    3.4430   -1.5315 H     1    ESP        -0.0003
     16 H          -2.0288    3.2264   -1.5315 H     1    ESP         0.0005
     16 H          -2.3840    2.9349   -1.5315 H     1    ESP         0.0012
     16 H          -2.6755    2.5797   -1.5315 H     1    ESP         0.0023
     16 H           1.2819    1.7358   -1.8964 H     1    ESP        -0.0117
     16 H           1.1295    2.1712   -1.8964 H     1    ESP        -0.0098
     16 H           0.8841    2.5618   -1.8964 H     1    ESP        -0.0077
     16 H           0.5579    2.8880   -1.8964 H     1    ESP        -0.0060
     16 H           0.1673    3.1334   -1.8964 H     1    ESP        -0.0047
     16 H          -0.2681    3.2858   -1.8964 H     1    ESP        -0.0037
     16 H          -0.7265    3.3374   -1.8964 H     1    ESP        -0.0027
     16 H          -1.1849    3.2858   -1.8964 H     1    ESP        -0.0019
     16 H          -1.6203    3.1334   -1.8964 H     1    ESP        -0.0012
     16 H          -2.0109    2.8880   -1.8964 H     1    ESP        -0.0005
     16 H          -2.3371    2.5618   -1.8964 H     1    ESP         0.0001
     16 H          -2.5825    2.1712   -1.8964 H     1    ESP         0.0009
     16 H           0.9933    1.2774   -2.2096 H     1    ESP        -0.0072
     16 H           0.9295    1.7414   -2.2096 H     1    ESP        -0.0078
     16 H           0.7429    2.1710   -2.2096 H     1    ESP        -0.0070
     16 H           0.4474    2.5343   -2.2096 H     1    ESP        -0.0059
     16 H           0.0647    2.8044   -2.2096 H     1    ESP        -0.0048
     16 H          -0.3766    2.9612   -2.2096 H     1    ESP        -0.0038
     16 H          -0.8439    2.9932   -2.2096 H     1    ESP        -0.0030
     16 H          -1.3024    2.8979   -2.2096 H     1    ESP        -0.0023
     16 H          -1.7183    2.6824   -2.2096 H     1    ESP        -0.0017
     16 H          -2.0606    2.3627   -2.2096 H     1    ESP        -0.0013
     16 H          -2.3039    1.9626   -2.2096 H     1    ESP        -0.0009
     16 H          -2.4303    1.5116   -2.2096 H     1    ESP        -0.0009
     16 H          -1.3024   -0.3431   -2.2096 H     1    ESP        -0.0057
     16 H           0.9295    0.8134   -2.2096 H     1    ESP        -0.0047
     16 H           0.6062    1.2774   -2.4625 H     1    ESP        -0.0056
     16 H           0.5258    1.7332   -2.4625 H     1    ESP        -0.0060
     16 H           0.2944    2.1340   -2.4625 H     1    ESP        -0.0055
     16 H          -0.0602    2.4315   -2.4625 H     1    ESP        -0.0047
     16 H          -0.4951    2.5898   -2.4625 H     1    ESP        -0.0040
     16 H          -0.9579    2.5898   -2.4625 H     1    ESP        -0.0033
     16 H          -1.3928    2.4315   -2.4625 H     1    ESP        -0.0027
     16 H          -1.7474    2.1340   -2.4625 H     1    ESP        -0.0024
     16 H          -1.9788    1.7332   -2.4625 H     1    ESP        -0.0022
     16 H          -2.0591    1.2774   -2.4625 H     1    ESP        -0.0025
     16 H          -1.9788    0.8216   -2.4625 H     1    ESP        -0.0033
     16 H          -1.7474    0.4208   -2.4625 H     1    ESP        -0.0042
     16 H          -1.3928    0.1233   -2.4625 H     1    ESP        -0.0048
     16 H          -0.9579   -0.0350   -2.4625 H     1    ESP        -0.0048
     16 H          -0.4951   -0.0350   -2.4625 H     1    ESP        -0.0042
     16 H          -0.0602    0.1233   -2.4625 H     1    ESP        -0.0034
     16 H           0.2944    0.4208   -2.4625 H     1    ESP        -0.0034
     16 H           0.5258    0.8216   -2.4625 H     1    ESP        -0.0044
     16 H           0.1827    1.2774   -2.6483 H     1    ESP        -0.0049
     16 H           0.0609    1.7320   -2.6483 H     1    ESP        -0.0050
     16 H          -0.2719    2.0647   -2.6483 H     1    ESP        -0.0045
     16 H          -0.7265    2.1866   -2.6483 H     1    ESP        -0.0039
     16 H          -1.1811    2.0647   -2.6483 H     1    ESP        -0.0034
     16 H          -1.5138    1.7320   -2.6483 H     1    ESP        -0.0032
     16 H          -1.6357    1.2774   -2.6483 H     1    ESP        -0.0033
     16 H          -1.5138    0.8228   -2.6483 H     1    ESP        -0.0039
     16 H          -1.1811    0.4900   -2.6483 H     1    ESP        -0.0044
     16 H          -0.7265    0.3682   -2.6483 H     1    ESP        -0.0044
     16 H          -0.2719    0.4900   -2.6483 H     1    ESP        -0.0042
     16 H           0.0609    0.8228   -2.6483 H     1    ESP        -0.0044
     16 H          -0.2656    1.2774   -2.7618 H     1    ESP        -0.0045
     16 H          -0.4961    1.6765   -2.7618 H     1    ESP        -0.0043
     16 H          -0.9569    1.6765   -2.7618 H     1    ESP        -0.0039
     16 H          -1.1874    1.2774   -2.7618 H     1    ESP        -0.0039
     16 H          -0.9569    0.8783   -2.7618 H     1    ESP        -0.0042
     16 H          -0.4961    0.8783   -2.7618 H     1    ESP        -0.0043
     16 H          -0.7265    1.2774   -2.8000 H     1    ESP        -0.0042
     16 H          -2.2544    0.4737    2.4000 H     1    ESP        -0.0026
     16 H          -2.4885    0.8792    2.3539 H     1    ESP        -0.0013
     16 H          -2.7226    0.4737    2.3539 H     1    ESP        -0.0007
     16 H          -2.4885    0.0682    2.3539 H     1    ESP        -0.0019
     16 H          -2.0203    0.0682    2.3539 H     1    ESP        -0.0037
     16 H          -2.7136    1.2691    2.2173 H     1    ESP         0.0002
     16 H          -3.0498    0.9329    2.2173 H     1    ESP         0.0012
     16 H          -3.1728    0.4737    2.2173 H     1    ESP         0.0012
     16 H          -3.0498    0.0145    2.2173 H     1    ESP         0.0003
     16 H          -2.9210    1.6284    1.9955 H     1    ESP         0.0020
     16 H          -3.2758    1.3308    1.9955 H     1    ESP         0.0033
     16 H          -3.5073    0.9297    1.9955 H     1    ESP         0.0037
     16 H          -3.5877    0.4737    1.9955 H     1    ESP         0.0032
     16 H          -3.5073    0.0177    1.9955 H     1    ESP         0.0023
     16 H          -2.8227    2.0728    1.6971 H     1    ESP         0.0028
     16 H          -3.9356    0.2426    1.6971 H     1    ESP         0.0048
     16 H          -3.8109   -0.2024    1.6971 H     1    ESP         0.0039
     16 H          -4.1295   -0.2088    1.3334 H     1    ESP         0.0059
     16 H          -4.1295   -0.2088   -1.3334 H     1    ESP         0.0059
     16 H          -2.8227    2.0728   -1.6971 H     1    ESP         0.0028
     16 H          -3.9356    0.2426   -1.6971 H     1    ESP         0.0048
     16 H          -3.8109   -0.2024   -1.6971 H     1    ESP         0.0039
     16 H          -2.9210    1.6284   -1.9955 H     1    ESP         0.0020
     16 H          -3.2758    1.3308   -1.9955 H     1    ESP         0.0033
     16 H          -3.5073    0.9297   -1.9955 H     1    ESP         0.0037
     16 H          -3.5877    0.4737   -1.9955 H     1    ESP         0.0032
     16 H          -3.5073    0.0177   -1.9955 H     1    ESP         0.0023
     16 H          -2.7136    1.2691   -2.2173 H     1    ESP         0.0002
     16 H          -3.0498    0.9329   -2.2173 H     1    ESP         0.0012
     16 H          -3.1728    0.4737   -2.2173 H     1    ESP         0.0012
     16 H          -3.0498    0.0145   -2.2173 H     1    ESP         0.0003
     16 H          -2.4885    0.8792   -2.3539 H     1    ESP        -0.0013
     16 H          -2.7226    0.4737   -2.3539 H     1    ESP        -0.0007
     16 H          -2.4885    0.0682   -2.3539 H     1    ESP        -0.0019
     16 H          -2.0203    0.0682   -2.3539 H     1    ESP        -0.0037
     16 H          -2.2544    0.4737   -2.4000 H     1    ESP        -0.0026
     16 H          -2.1294   -0.8942    2.4000 H     1    ESP        -0.0018
     16 H          -1.6612   -0.8942    2.3539 H     1    ESP        -0.0028
     16 H          -1.8953   -0.4887    2.3539 H     1    ESP        -0.0034
     16 H          -2.3635   -0.4887    2.3539 H     1    ESP        -0.0020
     16 H          -2.5976   -0.8942    2.3539 H     1    ESP        -0.0006
     16 H          -2.3635   -1.2996    2.3539 H     1    ESP        -0.0002
     16 H          -1.8953   -1.2996    2.3539 H     1    ESP        -0.0011
     16 H          -1.3340   -0.4349    2.2173 H     1    ESP        -0.0053
     16 H          -2.9248   -0.4349    2.2173 H     1    ESP        -0.0002
     16 H          -3.0478   -0.8942    2.2173 H     1    ESP         0.0008
     16 H          -2.9248   -1.3534    2.2173 H     1    ESP         0.0014
     16 H          -2.5886   -1.6896    2.2173 H     1    ESP         0.0014
     16 H          -2.1294   -1.8126    2.2173 H     1    ESP         0.0008
     16 H          -1.6702   -1.6896    2.2173 H     1    ESP        -0.0001
     16 H          -3.3823   -0.4381    1.9955 H     1    ESP         0.0017
     16 H          -3.4627   -0.8942    1.9955 H     1    ESP         0.0024
     16 H          -3.3823   -1.3502    1.9955 H     1    ESP         0.0031
     16 H          -3.1508   -1.7512    1.9955 H     1    ESP         0.0034
     16 H          -2.7961   -2.0489    1.9955 H     1    ESP         0.0032
     16 H          -2.3609   -2.2073    1.9955 H     1    ESP         0.0027
     16 H          -1.8978   -2.2073    1.9955 H     1    ESP         0.0022
     16 H          -3.8106   -0.6631    1.6971 H     1    ESP         0.0039
     16 H          -3.8106   -1.1252    1.6971 H     1    ESP         0.0046
     16 H          -2.6977   -2.4932    1.6971 H     1    ESP         0.0048
     16 H          -2.2452   -2.5873    1.6971 H     1    ESP         0.0042
     16 H          -4.1114   -0.6625    1.3334 H     1    ESP         0.0057
     16 H          -2.2454   -2.8863    1.3334 H     1    ESP         0.0060
     16 H          -4.2982   -0.4332    0.9184 H     1    ESP         0.0075
     16 H          -2.1294   -3.2480    0.4682 H     1    ESP         0.0091
     16 H          -2.1294   -3.2480   -0.4682 H     1    ESP         0.0091
     16 H          -4.2982   -0.4332   -0.9184 H     1    ESP         0.0075
     16 H          -4.1114   -0.6625   -1.3334 H     1    ESP         0.0057
     16 H          -2.2454   -2.8863   -1.3334 H     1    ESP         0.0060
     16 H          -3.8106   -0.6631   -1.6971 H     1    ESP         0.0039
     16 H          -3.8106   -1.1252   -1.6971 H     1    ESP         0.0046
     16 H          -2.6977   -2.4932   -1.6971 H     1    ESP         0.0048
     16 H          -2.2452   -2.5873   -1.6971 H     1    ESP         0.0042
     16 H          -3.3823   -0.4381   -1.9955 H     1    ESP         0.0017
     16 H          -3.4627   -0.8942   -1.9955 H     1    ESP         0.0024
     16 H          -3.3823   -1.3502   -1.9955 H     1    ESP         0.0031
     16 H          -3.1508   -1.7512   -1.9955 H     1    ESP         0.0034
     16 H          -2.7961   -2.0489   -1.9955 H     1    ESP         0.0032
     16 H          -2.3609   -2.2073   -1.9955 H     1    ESP         0.0027
     16 H          -1.8978   -2.2073   -1.9955 H     1    ESP         0.0022
     16 H          -1.3340   -0.4349   -2.2173 H     1    ESP        -0.0053
     16 H          -2.9248   -0.4349   -2.2173 H     1    ESP        -0.0002
     16 H          -3.0478   -0.8942   -2.2173 H     1    ESP         0.0008
     16 H          -2.9248   -1.3534   -2.2173 H     1    ESP         0.0014
     16 H          -2.5886   -1.6896   -2.2173 H     1    ESP         0.0014
     16 H          -2.1294   -1.8126   -2.2173 H     1    ESP         0.0008
     16 H          -1.6702   -1.6896   -2.2173 H     1    ESP        -0.0001
     16 H          -1.6612   -0.8942   -2.3539 H     1    ESP        -0.0028
     16 H          -1.8953   -0.4887   -2.3539 H     1    ESP        -0.0034
     16 H          -2.3635   -0.4887   -2.3539 H     1    ESP        -0.0020
     16 H          -2.5976   -0.8942   -2.3539 H     1    ESP        -0.0006
     16 H          -2.3635   -1.2996   -2.3539 H     1    ESP        -0.0002
     16 H          -1.8953   -1.2996   -2.3539 H     1    ESP        -0.0011
     16 H          -2.1294   -0.8942   -2.4000 H     1    ESP        -0.0018
     16 H          -0.7717   -1.3096    2.4000 H     1    ESP        -0.0005
     16 H          -0.3035   -1.3096    2.3539 H     1    ESP         0.0008
     16 H          -0.5376   -0.9041    2.3539 H     1    ESP        -0.0017
     16 H          -1.0058   -0.9041    2.3539 H     1    ESP        -0.0027
     16 H          -1.2399   -1.3096    2.3539 H     1    ESP        -0.0013
     16 H          -1.0058   -1.7150    2.3539 H     1    ESP         0.0007
     16 H          -0.5376   -1.7150    2.3539 H     1    ESP         0.0016
     16 H           0.1467   -1.3096    2.2173 H     1    ESP         0.0029
     16 H          -1.2309   -0.5142    2.2173 H     1    ESP        -0.0051
     16 H          -1.5671   -1.7688    2.2173 H     1    ESP         0.0003
     16 H          -1.2309   -2.1050    2.2173 H     1    ESP         0.0019
     16 H          -0.7717   -2.2280    2.2173 H     1    ESP         0.0032
     16 H          -0.3125   -2.1050    2.2173 H     1    ESP         0.0039
     16 H           0.0237   -1.7688    2.2173 H     1    ESP         0.0039
     16 H          -1.4384   -2.4643    1.9955 H     1    ESP         0.0033
     16 H          -1.0032   -2.6227    1.9955 H     1    ESP         0.0046
     16 H          -0.5402   -2.6227    1.9955 H     1    ESP         0.0056
     16 H          -0.1050   -2.4643    1.9955 H     1    ESP         0.0063
     16 H           0.2497   -2.1666    1.9955 H     1    ESP         0.0066
     16 H           0.4813   -1.7656    1.9955 H     1    ESP         0.0068
     16 H          -1.7504   -2.6960    1.6971 H     1    ESP         0.0045
     16 H          -1.3400   -2.9086    1.6971 H     1    ESP         0.0057
     16 H           0.6783   -2.1913    1.6971 H     1    ESP         0.0100
     16 H          -1.7695   -3.0377    1.3334 H     1    ESP         0.0065
     16 H          -1.7695   -3.0377   -1.3334 H     1    ESP         0.0065
     16 H          -1.7504   -2.6960   -1.6971 H     1    ESP         0.0045
     16 H          -1.3400   -2.9086   -1.6971 H     1    ESP         0.0057
     16 H           0.6783   -2.1913   -1.6971 H     1    ESP         0.0100
     16 H          -1.4384   -2.4643   -1.9955 H     1    ESP         0.0033
     16 H          -1.0032   -2.6227   -1.9955 H     1    ESP         0.0046
     16 H          -0.5402   -2.6227   -1.9955 H     1    ESP         0.0056
     16 H          -0.1050   -2.4643   -1.9955 H     1    ESP         0.0063
     16 H           0.2497   -2.1666   -1.9955 H     1    ESP         0.0066
     16 H           0.4813   -1.7656   -1.9955 H     1    ESP         0.0068
     16 H           0.1467   -1.3096   -2.2173 H     1    ESP         0.0029
     16 H          -1.2309   -0.5142   -2.2173 H     1    ESP        -0.0051
     16 H          -1.5671   -1.7688   -2.2173 H     1    ESP         0.0003
     16 H          -1.2309   -2.1050   -2.2173 H     1    ESP         0.0019
     16 H          -0.7717   -2.2280   -2.2173 H     1    ESP         0.0032
     16 H          -0.3125   -2.1050   -2.2173 H     1    ESP         0.0039
     16 H           0.0237   -1.7688   -2.2173 H     1    ESP         0.0039
     16 H          -0.3035   -1.3096   -2.3539 H     1    ESP         0.0008
     16 H          -0.5376   -0.9041   -2.3539 H     1    ESP        -0.0017
     16 H          -1.0058   -0.9041   -2.3539 H     1    ESP        -0.0027
     16 H          -1.2399   -1.3096   -2.3539 H     1    ESP        -0.0013
     16 H          -1.0058   -1.7150   -2.3539 H     1    ESP         0.0007
     16 H          -0.5376   -1.7150   -2.3539 H     1    ESP         0.0016
     16 H          -0.7717   -1.3096   -2.4000 H     1    ESP        -0.0005
     16 H           0.1200   -0.2552    2.4000 H     1    ESP        -0.0014
     16 H           0.5882   -0.2552    2.3539 H     1    ESP         0.0011
     16 H           0.3541    0.1503    2.3539 H     1    ESP        -0.0021
     16 H          -0.3482   -0.2552    2.3539 H     1    ESP        -0.0036
     16 H          -0.1141   -0.6607    2.3539 H     1    ESP        -0.0010
     16 H           0.3541   -0.6607    2.3539 H     1    ESP         0.0015
     16 H           0.5792   -1.0506    2.2173 H     1    ESP         0.0048
     16 H           0.7867   -1.4100    1.9955 H     1    ESP         0.0083
     16 H           0.7867   -1.4100   -1.9955 H     1    ESP         0.0083
     16 H           0.5792   -1.0506   -2.2173 H     1    ESP         0.0048
     16 H           0.5882   -0.2552   -2.3539 H     1    ESP         0.0011
     16 H           0.3541    0.1503   -2.3539 H     1    ESP        -0.0021
     16 H          -0.3482   -0.2552   -2.3539 H     1    ESP        -0.0036
     16 H          -0.1141   -0.6607   -2.3539 H     1    ESP        -0.0010
     16 H           0.3541   -0.6607   -2.3539 H     1    ESP         0.0015
     16 H           0.1200   -0.2552   -2.4000 H     1    ESP        -0.0014
     16 H           1.5912   -0.2386    2.4000 H     1    ESP         0.0035
     16 H           2.0594   -0.2386    2.3539 H     1    ESP         0.0029
     16 H           1.8253    0.1669    2.3539 H     1    ESP         0.0000
     16 H           1.3570    0.1669    2.3539 H     1    ESP         0.0007
     16 H           1.1229   -0.2386    2.3539 H     1    ESP         0.0034
     16 H           1.3570   -0.6440    2.3539 H     1    ESP         0.0060
     16 H           1.8253   -0.6440    2.3539 H     1    ESP         0.0060
     16 H           2.5096   -0.2386    2.2173 H     1    ESP         0.0017
     16 H           2.3865    0.2207    2.2173 H     1    ESP        -0.0026
     16 H           1.5912    0.6799    2.2173 H     1    ESP        -0.0047
     16 H           1.1319    0.5568    2.2173 H     1    ESP        -0.0026
     16 H           1.1319   -1.0339    2.2173 H     1    ESP         0.0077
     16 H           0.9245   -1.3933    1.9955 H     1    ESP         0.0091
     16 H           0.9245   -1.3933   -1.9955 H     1    ESP         0.0091
     16 H           2.5096   -0.2386   -2.2173 H     1    ESP         0.0017
     16 H           2.3865    0.2207   -2.2173 H     1    ESP        -0.0026
     16 H           1.5912    0.6799   -2.2173 H     1    ESP        -0.0047
     16 H           1.1319    0.5568   -2.2173 H     1    ESP        -0.0026
     16 H           1.1319   -1.0339   -2.2173 H     1    ESP         0.0077
     16 H           2.0594   -0.2386   -2.3539 H     1    ESP         0.0029
     16 H           1.8253    0.1669   -2.3539 H     1    ESP         0.0000
     16 H           1.3570    0.1669   -2.3539 H     1    ESP         0.0007
     16 H           1.1229   -0.2386   -2.3539 H     1    ESP         0.0034
     16 H           1.3570   -0.6440   -2.3539 H     1    ESP         0.0060
     16 H           1.8253   -0.6440   -2.3539 H     1    ESP         0.0060
     16 H           1.5912   -0.2386   -2.4000 H     1    ESP         0.0035
     16 H           1.4288   -1.5599    2.2173 H     1    ESP         0.0081
     16 H           1.5519   -2.0191    2.2173 H     1    ESP         0.0073
     16 H           1.0139   -1.5599    1.9955 H     1    ESP         0.0093
     16 H           1.0943   -2.0160    1.9955 H     1    ESP         0.0086
     16 H           1.3258   -2.4170    1.9955 H     1    ESP         0.0078
     16 H           1.6806   -2.7147    1.9955 H     1    ESP         0.0068
     16 H           0.7907   -2.2360    1.6971 H     1    ESP         0.0101
     16 H           2.2314   -3.2530    1.6971 H     1    ESP         0.0057
     16 H           2.6938   -3.5251    1.3334 H     1    ESP         0.0049
     16 H           3.0324   -3.6687    0.9184 H     1    ESP         0.0044
     16 H           3.4559   -3.4802    0.9184 H     1    ESP         0.0039
     16 H           3.2480   -3.7346    0.4682 H     1    ESP         0.0041
     16 H           3.6550   -3.5171    0.4682 H     1    ESP         0.0036
     16 H           4.0117   -3.2244    0.4682 H     1    ESP         0.0033
     16 H           4.7472   -1.5599    0.0000 H     1    ESP         0.0015
     16 H           4.7039   -1.1057    0.0000 H     1    ESP         0.0003
     16 H           4.5753   -0.6679    0.0000 H     1    ESP        -0.0018
     16 H           4.3663   -0.2624    0.0000 H     1    ESP        -0.0055
     16 H           3.3442   -3.7430    0.0000 H     1    ESP         0.0039
     16 H           3.7394   -3.5149    0.0000 H     1    ESP         0.0035
     16 H           4.0842   -3.2161    0.0000 H     1    ESP         0.0032
     16 H           4.3663   -2.8575    0.0000 H     1    ESP         0.0029
     16 H           4.5753   -2.4519    0.0000 H     1    ESP         0.0026
     16 H           4.7039   -2.0141    0.0000 H     1    ESP         0.0022
     16 H           3.2480   -3.7346   -0.4682 H     1    ESP         0.0041
     16 H           3.6550   -3.5171   -0.4682 H     1    ESP         0.0036
     16 H           4.0117   -3.2244   -0.4682 H     1    ESP         0.0033
     16 H           3.0324   -3.6687   -0.9184 H     1    ESP         0.0044
     16 H           3.4559   -3.4802   -0.9184 H     1    ESP         0.0039
     16 H           2.6938   -3.5251   -1.3334 H     1    ESP         0.0049
     16 H           0.7907   -2.2360   -1.6971 H     1    ESP         0.0101
     16 H           2.2314   -3.2530   -1.6971 H     1    ESP         0.0057
     16 H           1.0139   -1.5599   -1.9955 H     1    ESP         0.0093
     16 H           1.0943   -2.0160   -1.9955 H     1    ESP         0.0086
     16 H           1.3258   -2.4170   -1.9955 H     1    ESP         0.0078
     16 H           1.6806   -2.7147   -1.9955 H     1    ESP         0.0068
     16 H           1.4288   -1.5599   -2.2173 H     1    ESP         0.0081
     16 H           1.5519   -2.0191   -2.2173 H     1    ESP         0.0073
     16 H           2.2063    0.8204    2.2400 H     1    ESP        -0.0081
     16 H           2.6720    0.8204    2.1911 H     1    ESP        -0.0094
     16 H           2.4391    1.2237    2.1911 H     1    ESP        -0.0114
     16 H           1.9734    1.2237    2.1911 H     1    ESP        -0.0104
     16 H           1.7405    0.8204    2.1911 H     1    ESP        -0.0068
     16 H           2.4391    0.4171    2.1911 H     1    ESP        -0.0052
     16 H           3.1173    0.8204    2.0463 H     1    ESP        -0.0106
     16 H           2.9953    1.2759    2.0463 H     1    ESP        -0.0128
     16 H           2.6618    1.6094    2.0463 H     1    ESP        -0.0137
     16 H           2.2063    1.7315    2.0463 H     1    ESP        -0.0135
     16 H           1.7507    1.6094    2.0463 H     1    ESP        -0.0123
     16 H           1.4172    1.2759    2.0463 H     1    ESP        -0.0100
     16 H           2.9953    0.3648    2.0463 H     1    ESP        -0.0069
     16 H           3.5229    0.8204    1.8122 H     1    ESP        -0.0116
     16 H           3.4435    1.2707    1.8122 H     1    ESP        -0.0137
     16 H           3.2149    1.6667    1.8122 H     1    ESP        -0.0149
     16 H           2.8646    1.9606    1.8122 H     1    ESP        -0.0154
     16 H           2.4349    2.1170    1.8122 H     1    ESP        -0.0153
     16 H           1.9776    2.1170    1.8122 H     1    ESP        -0.0147
     16 H           1.5479    1.9606    1.8122 H     1    ESP        -0.0136
     16 H           3.4435    0.3701    1.8122 H     1    ESP        -0.0085
     16 H           3.8709    0.8204    1.4989 H     1    ESP        -0.0125
     16 H           3.8092    1.2695    1.4989 H     1    ESP        -0.0144
     16 H           3.6286    1.6853    1.4989 H     1    ESP        -0.0156
     16 H           3.3425    2.0370    1.4989 H     1    ESP        -0.0163
     16 H           2.9721    2.2984    1.4989 H     1    ESP        -0.0166
     16 H           2.5449    2.4502    1.4989 H     1    ESP        -0.0165
     16 H           2.0927    2.4812    1.4989 H     1    ESP        -0.0159
     16 H           1.6488    2.3889    1.4989 H     1    ESP        -0.0149
     16 H           3.8092    0.3713    1.4989 H     1    ESP        -0.0097
     16 H           4.1462    0.8204    1.1200 H     1    ESP        -0.0131
     16 H           4.0898    1.2846    1.1200 H     1    ESP        -0.0149
     16 H           3.9240    1.7219    1.1200 H     1    ESP        -0.0162
     16 H           3.6583    2.1068    1.1200 H     1    ESP        -0.0169
     16 H           3.3082    2.4169    1.1200 H     1    ESP        -0.0173
     16 H           2.8942    2.6342    1.1200 H     1    ESP        -0.0173
     16 H           2.4401    2.7461    1.1200 H     1    ESP        -0.0170
     16 H           1.9724    2.7461    1.1200 H     1    ESP        -0.0162
     16 H           1.5184    2.6342    1.1200 H     1    ESP        -0.0148
     16 H           4.0898    0.3561    1.1200 H     1    ESP        -0.0105
     16 H           4.3366    0.8204    0.6922 H     1    ESP        -0.0135
     16 H           4.2868    1.2784    0.6922 H     1    ESP        -0.0152
     16 H           4.1397    1.7149    0.6922 H     1    ESP        -0.0164
     16 H           3.9022    2.1096    0.6922 H     1    ESP        -0.0172
     16 H           3.5854    2.4441    0.6922 H     1    ESP        -0.0177
     16 H           3.2041    2.7026    0.6922 H     1    ESP        -0.0179
     16 H           2.7762    2.8731    0.6922 H     1    ESP        -0.0177
     16 H           2.3216    2.9476    0.6922 H     1    ESP        -0.0172
     16 H           1.8616    2.9227    0.6922 H     1    ESP        -0.0161
     16 H           4.2868    0.3624    0.6922 H     1    ESP        -0.0111
     16 H           4.4340    0.8204    0.2341 H     1    ESP        -0.0137
     16 H           4.3853    1.2836    0.2341 H     1    ESP        -0.0154
     16 H           4.2414    1.7265    0.2341 H     1    ESP        -0.0166
     16 H           4.0085    2.1298    0.2341 H     1    ESP        -0.0174
     16 H           3.6969    2.4759    0.2341 H     1    ESP        -0.0179
     16 H           3.3201    2.7497    0.2341 H     1    ESP        -0.0181
     16 H           2.8947    2.9391    0.2341 H     1    ESP        -0.0180
     16 H           2.4391    3.0359    0.2341 H     1    ESP        -0.0175
     16 H           1.9734    3.0359    0.2341 H     1    ESP        -0.0165
     16 H           1.5179    2.9391    0.2341 H     1    ESP        -0.0143
     16 H           4.2414   -0.0857    0.2341 H     1    ESP        -0.0081
     16 H           4.3853    0.3572    0.2341 H     1    ESP        -0.0114
     16 H           4.4340    0.8204   -0.2341 H     1    ESP        -0.0137
     16 H           4.3853    1.2836   -0.2341 H     1    ESP        -0.0154
     16 H           4.2414    1.7265   -0.2341 H     1    ESP        -0.0166
     16 H           4.0085    2.1298   -0.2341 H     1    ESP        -0.0174
     16 H           3.6969    2.4759   -0.2341 H     1    ESP        -0.0179
     16 H           3.3201    2.7497   -0.2341 H     1    ESP        -0.0181
     16 H           2.8947    2.9391   -0.2341 H     1    ESP        -0.0180
     16 H           2.4391    3.0359   -0.2341 H     1    ESP        -0.0175
     16 H           1.9734    3.0359   -0.2341 H     1    ESP        -0.0165
     16 H           1.5179    2.9391   -0.2341 H     1    ESP        -0.0143
     16 H           4.2414   -0.0857   -0.2341 H     1    ESP        -0.0081
     16 H           4.3853    0.3572   -0.2341 H     1    ESP        -0.0114
     16 H           4.3366    0.8204   -0.6922 H     1    ESP        -0.0135
     16 H           4.2868    1.2784   -0.6922 H     1    ESP        -0.0152
     16 H           4.1397    1.7149   -0.6922 H     1    ESP        -0.0164
     16 H           3.9022    2.1096   -0.6922 H     1    ESP        -0.0172
     16 H           3.5854    2.4441   -0.6922 H     1    ESP        -0.0177
     16 H           3.2041    2.7026   -0.6922 H     1    ESP        -0.0179
     16 H           2.7762    2.8731   -0.6922 H     1    ESP        -0.0177
     16 H           2.3216    2.9476   -0.6922 H     1    ESP        -0.0172
     16 H           1.8616    2.9227   -0.6922 H     1    ESP        -0.0161
     16 H           4.2868    0.3624   -0.6922 H     1    ESP        -0.0111
     16 H           4.1462    0.8204   -1.1200 H     1    ESP        -0.0131
     16 H           4.0898    1.2846   -1.1200 H     1    ESP        -0.0149
     16 H           3.9240    1.7219   -1.1200 H     1    ESP        -0.0162
     16 H           3.6583    2.1068   -1.1200 H     1    ESP        -0.0169
     16 H           3.3082    2.4169   -1.1200 H     1    ESP        -0.0173
     16 H           2.8942    2.6342   -1.1200 H     1    ESP        -0.0173
     16 H           2.4401    2.7461   -1.1200 H     1    ESP        -0.0170
     16 H           1.9724    2.7461   -1.1200 H     1    ESP        -0.0162
     16 H           1.5184    2.6342   -1.1200 H     1    ESP        -0.0148
     16 H           4.0898    0.3561   -1.1200 H     1    ESP        -0.0105
     16 H           3.8709    0.8204   -1.4989 H     1    ESP        -0.0125
     16 H           3.8092    1.2695   -1.4989 H     1    ESP        -0.0144
     16 H           3.6286    1.6853   -1.4989 H     1    ESP        -0.0156
     16 H           3.3425    2.0370   -1.4989 H     1    ESP        -0.0163
     16 H           2.9721    2.2984   -1.4989 H     1    ESP        -0.0166
     16 H           2.5449    2.4502   -1.4989 H     1    ESP        -0.0165
     16 H           2.0927    2.4812   -1.4989 H     1    ESP        -0.0159
     16 H           1.6488    2.3889   -1.4989 H     1    ESP        -0.0149
     16 H           3.8092    0.3713   -1.4989 H     1    ESP        -0.0097
     16 H           3.5229    0.8204   -1.8122 H     1    ESP        -0.0116
     16 H           3.4435    1.2707   -1.8122 H     1    ESP        -0.0137
     16 H           3.2149    1.6667   -1.8122 H     1    ESP        -0.0149
     16 H           2.8646    1.9606   -1.8122 H     1    ESP        -0.0154
     16 H           2.4349    2.1170   -1.8122 H     1    ESP        -0.0153
     16 H           1.9776    2.1170   -1.8122 H     1    ESP        -0.0147
     16 H           1.5479    1.9606   -1.8122 H     1    ESP        -0.0136
     16 H           3.4435    0.3701   -1.8122 H     1    ESP        -0.0085
     16 H           3.1173    0.8204   -2.0463 H     1    ESP        -0.0106
     16 H           2.9953    1.2759   -2.0463 H     1    ESP        -0.0128
     16 H           2.6618    1.6094   -2.0463 H     1    ESP        -0.0137
     16 H           2.2063    1.7315   -2.0463 H     1    ESP        -0.0135
     16 H           1.7507    1.6094   -2.0463 H     1    ESP        -0.0123
     16 H           1.4172    1.2759   -2.0463 H     1    ESP        -0.0100
     16 H           2.9953    0.3648   -2.0463 H     1    ESP        -0.0069
     16 H           2.6720    0.8204   -2.1911 H     1    ESP        -0.0094
     16 H           2.4391    1.2237   -2.1911 H     1    ESP        -0.0114
     16 H           1.9734    1.2237   -2.1911 H     1    ESP        -0.0104
     16 H           1.7405    0.8204   -2.1911 H     1    ESP        -0.0068
     16 H           2.4391    0.4171   -2.1911 H     1    ESP        -0.0052
     16 H           2.2063    0.8204   -2.2400 H     1    ESP        -0.0081
     16 H          -3.1710    1.9423    1.7001 H     1    ESP         0.0044
     16 H          -3.6171    1.8227    1.7001 H     1    ESP         0.0054
     16 H          -3.9437    1.4961    1.7001 H     1    ESP         0.0059
     16 H          -4.0633    1.0500    1.7001 H     1    ESP         0.0060
     16 H          -3.9437    0.6039    1.7001 H     1    ESP         0.0056
     16 H          -3.0535    2.3178    1.4371 H     1    ESP         0.0047
     16 H          -3.5194    2.2746    1.4371 H     1    ESP         0.0057
     16 H          -3.9383    2.0660    1.4371 H     1    ESP         0.0063
     16 H          -4.2535    1.7202    1.4371 H     1    ESP         0.0066
     16 H          -4.4225    1.2839    1.4371 H     1    ESP         0.0068
     16 H          -4.4225    0.8160    1.4371 H     1    ESP         0.0068
     16 H          -4.2535    0.3797    1.4371 H     1    ESP         0.0065
     16 H          -3.0529    2.6257    1.0907 H     1    ESP         0.0054
     16 H          -3.5226    2.5905    1.0907 H     1    ESP         0.0061
     16 H          -3.9611    2.4184    1.0907 H     1    ESP         0.0066
     16 H          -4.3293    2.1248    1.0907 H     1    ESP         0.0069
     16 H          -4.5947    1.7356    1.0907 H     1    ESP         0.0071
     16 H          -4.7335    1.2855    1.0907 H     1    ESP         0.0073
     16 H          -4.7335    0.8145    1.0907 H     1    ESP         0.0073
     16 H          -4.5947    0.3644    1.0907 H     1    ESP         0.0073
     16 H          -3.1710    2.8452    0.6808 H     1    ESP         0.0062
     16 H          -3.6356    2.7841    0.6808 H     1    ESP         0.0065
     16 H          -4.0686    2.6047    0.6808 H     1    ESP         0.0069
     16 H          -4.4404    2.3194    0.6808 H     1    ESP         0.0071
     16 H          -4.7257    1.9476    0.6808 H     1    ESP         0.0074
     16 H          -4.9051    1.5146    0.6808 H     1    ESP         0.0075
     16 H          -4.9662    1.0500    0.6808 H     1    ESP         0.0076
     16 H          -4.9051    0.5854    0.6808 H     1    ESP         0.0077
     16 H          -4.7257    0.1524    0.6808 H     1    ESP         0.0079
     16 H          -3.0513    2.9522    0.2314 H     1    ESP         0.0067
     16 H          -3.5282    2.9222    0.2314 H     1    ESP         0.0067
     16 H          -3.9825    2.7746    0.2314 H     1    ESP         0.0069
     16 H          -4.3859    2.5186    0.2314 H     1    ESP         0.0072
     16 H          -4.7130    2.1703    0.2314 H     1    ESP         0.0074
     16 H          -4.9432    1.7516    0.2314 H     1    ESP         0.0076
     16 H          -5.0620    1.2889    0.2314 H     1    ESP         0.0077
     16 H          -5.0620    0.8111    0.2314 H     1    ESP         0.0078
     16 H          -4.9432    0.3483    0.2314 H     1    ESP         0.0080
     16 H          -4.7130   -0.0703    0.2314 H     1    ESP         0.0085
     16 H          -3.0513    2.9522   -0.2314 H     1    ESP         0.0067
     16 H          -3.5282    2.9222   -0.2314 H     1    ESP         0.0067
     16 H          -3.9825    2.7746   -0.2314 H     1    ESP         0.0069
     16 H          -4.3859    2.5186   -0.2314 H     1    ESP         0.0072
     16 H          -4.7130    2.1703   -0.2314 H     1    ESP         0.0074
     16 H          -4.9432    1.7516   -0.2314 H     1    ESP         0.0076
     16 H          -5.0620    1.2889   -0.2314 H     1    ESP         0.0077
     16 H          -5.0620    0.8111   -0.2314 H     1    ESP         0.0078
     16 H          -4.9432    0.3483   -0.2314 H     1    ESP         0.0080
     16 H          -4.7130   -0.0703   -0.2314 H     1    ESP         0.0085
     16 H          -3.1710    2.8452   -0.6808 H     1    ESP         0.0062
     16 H          -3.6356    2.7841   -0.6808 H     1    ESP         0.0065
     16 H          -4.0686    2.6047   -0.6808 H     1    ESP         0.0069
     16 H          -4.4404    2.3194   -0.6808 H     1    ESP         0.0071
     16 H          -4.7257    1.9476   -0.6808 H     1    ESP         0.0074
     16 H          -4.9051    1.5146   -0.6808 H     1    ESP         0.0075
     16 H          -4.9662    1.0500   -0.6808 H     1    ESP         0.0076
     16 H          -4.9051    0.5854   -0.6808 H     1    ESP         0.0077
     16 H          -4.7257    0.1524   -0.6808 H     1    ESP         0.0079
     16 H          -3.0529    2.6257   -1.0907 H     1    ESP         0.0054
     16 H          -3.5226    2.5905   -1.0907 H     1    ESP         0.0061
     16 H          -3.9611    2.4184   -1.0907 H     1    ESP         0.0066
     16 H          -4.3293    2.1248   -1.0907 H     1    ESP         0.0069
     16 H          -4.5947    1.7356   -1.0907 H     1    ESP         0.0071
     16 H          -4.7335    1.2855   -1.0907 H     1    ESP         0.0073
     16 H          -4.7335    0.8145   -1.0907 H     1    ESP         0.0073
     16 H          -4.5947    0.3644   -1.0907 H     1    ESP         0.0073
     16 H          -3.0535    2.3178   -1.4371 H     1    ESP         0.0047
     16 H          -3.5194    2.2746   -1.4371 H     1    ESP         0.0057
     16 H          -3.9383    2.0660   -1.4371 H     1    ESP         0.0063
     16 H          -4.2535    1.7202   -1.4371 H     1    ESP         0.0066
     16 H          -4.4225    1.2839   -1.4371 H     1    ESP         0.0068
     16 H          -4.4225    0.8160   -1.4371 H     1    ESP         0.0068
     16 H          -4.2535    0.3797   -1.4371 H     1    ESP         0.0065
     16 H          -3.1710    1.9423   -1.7001 H     1    ESP         0.0044
     16 H          -3.6171    1.8227   -1.7001 H     1    ESP         0.0054
     16 H          -3.9437    1.4961   -1.7001 H     1    ESP         0.0059
     16 H          -4.0633    1.0500   -1.7001 H     1    ESP         0.0060
     16 H          -3.9437    0.6039   -1.7001 H     1    ESP         0.0056
     16 H          -3.2029   -1.9732    1.8642 H     1    ESP         0.0044
     16 H          -3.8654   -1.5752    1.7001 H     1    ESP         0.0052
     16 H          -3.7459   -2.0214    1.7001 H     1    ESP         0.0054
     16 H          -3.4193   -2.3480    1.7001 H     1    ESP         0.0054
     16 H          -2.9732   -2.4675    1.7001 H     1    ESP         0.0052
     16 H          -4.0557   -0.9050    1.4371 H     1    ESP         0.0055
     16 H          -4.2247   -1.3413    1.4371 H     1    ESP         0.0058
     16 H          -4.2247   -1.8092    1.4371 H     1    ESP         0.0060
     16 H          -4.0557   -2.2455    1.4371 H     1    ESP         0.0061
     16 H          -3.7404   -2.5913    1.4371 H     1    ESP         0.0061
     16 H          -3.3216   -2.7998    1.4371 H     1    ESP         0.0061
     16 H          -2.8557   -2.8430    1.4371 H     1    ESP         0.0060
     16 H          -4.3968   -0.8896    1.0907 H     1    ESP         0.0066
     16 H          -4.5357   -1.3397    1.0907 H     1    ESP         0.0064
     16 H          -4.5357   -1.8107    1.0907 H     1    ESP         0.0064
     16 H          -4.3968   -2.2608    1.0907 H     1    ESP         0.0065
     16 H          -4.1315   -2.6500    1.0907 H     1    ESP         0.0065
     16 H          -3.7632   -2.9437    1.0907 H     1    ESP         0.0065
     16 H          -3.3248   -3.1157    1.0907 H     1    ESP         0.0066
     16 H          -2.8551   -3.1509    1.0907 H     1    ESP         0.0067
     16 H          -2.3959   -3.0461    1.0907 H     1    ESP         0.0070
     16 H          -4.5279   -0.6776    0.6808 H     1    ESP         0.0076
     16 H          -4.7072   -1.1106    0.6808 H     1    ESP         0.0070
     16 H          -4.7684   -1.5752    0.6808 H     1    ESP         0.0068
     16 H          -4.7072   -2.0399    0.6808 H     1    ESP         0.0067
     16 H          -4.5279   -2.4728    0.6808 H     1    ESP         0.0067
     16 H          -4.2426   -2.8446    0.6808 H     1    ESP         0.0068
     16 H          -3.8708   -3.1299    0.6808 H     1    ESP         0.0068
     16 H          -3.4378   -3.3093    0.6808 H     1    ESP         0.0069
     16 H          -2.9732   -3.3705    0.6808 H     1    ESP         0.0071
     16 H          -2.5085   -3.3093    0.6808 H     1    ESP         0.0077
     16 H          -4.5152   -0.4549    0.2314 H     1    ESP         0.0089
     16 H          -4.7453   -0.8736    0.2314 H     1    ESP         0.0075
     16 H          -4.8641   -1.3363    0.2314 H     1    ESP         0.0070
     16 H          -4.8641   -1.8141    0.2314 H     1    ESP         0.0069
     16 H          -4.7453   -2.2769    0.2314 H     1    ESP         0.0068
     16 H          -4.5152   -2.6955    0.2314 H     1    ESP         0.0069
     16 H          -4.1881   -3.0438    0.2314 H     1    ESP         0.0069
     16 H          -3.7847   -3.2998    0.2314 H     1    ESP         0.0070
     16 H          -3.3303   -3.4475    0.2314 H     1    ESP         0.0071
     16 H          -2.8535   -3.4775    0.2314 H     1    ESP         0.0075
     16 H          -2.3842   -3.3879    0.2314 H     1    ESP         0.0084
     16 H          -4.5152   -0.4549   -0.2314 H     1    ESP         0.0089
     16 H          -4.7453   -0.8736   -0.2314 H     1    ESP         0.0075
     16 H          -4.8641   -1.3363   -0.2314 H     1    ESP         0.0070
     16 H          -4.8641   -1.8141   -0.2314 H     1    ESP         0.0069
     16 H          -4.7453   -2.2769   -0.2314 H     1    ESP         0.0068
     16 H          -4.5152   -2.6955   -0.2314 H     1    ESP         0.0069
     16 H          -4.1881   -3.0438   -0.2314 H     1    ESP         0.0069
     16 H          -3.7847   -3.2998   -0.2314 H     1    ESP         0.0070
     16 H          -3.3303   -3.4475   -0.2314 H     1    ESP         0.0071
     16 H          -2.8535   -3.4775   -0.2314 H     1    ESP         0.0075
     16 H          -2.3842   -3.3879   -0.2314 H     1    ESP         0.0084
     16 H          -4.5279   -0.6776   -0.6808 H     1    ESP         0.0076
     16 H          -4.7072   -1.1106   -0.6808 H     1    ESP         0.0070
     16 H          -4.7684   -1.5752   -0.6808 H     1    ESP         0.0068
     16 H          -4.7072   -2.0399   -0.6808 H     1    ESP         0.0067
     16 H          -4.5279   -2.4728   -0.6808 H     1    ESP         0.0067
     16 H          -4.2426   -2.8446   -0.6808 H     1    ESP         0.0068
     16 H          -3.8708   -3.1299   -0.6808 H     1    ESP         0.0068
     16 H          -3.4378   -3.3093   -0.6808 H     1    ESP         0.0069
     16 H          -2.9732   -3.3705   -0.6808 H     1    ESP         0.0071
     16 H          -2.5085   -3.3093   -0.6808 H     1    ESP         0.0077
     16 H          -4.3968   -0.8896   -1.0907 H     1    ESP         0.0066
     16 H          -4.5357   -1.3397   -1.0907 H     1    ESP         0.0064
     16 H          -4.5357   -1.8107   -1.0907 H     1    ESP         0.0064
     16 H          -4.3968   -2.2608   -1.0907 H     1    ESP         0.0065
     16 H          -4.1315   -2.6500   -1.0907 H     1    ESP         0.0065
     16 H          -3.7632   -2.9437   -1.0907 H     1    ESP         0.0065
     16 H          -3.3248   -3.1157   -1.0907 H     1    ESP         0.0066
     16 H          -2.8551   -3.1509   -1.0907 H     1    ESP         0.0067
     16 H          -2.3959   -3.0461   -1.0907 H     1    ESP         0.0070
     16 H          -4.0557   -0.9050   -1.4371 H     1    ESP         0.0055
     16 H          -4.2247   -1.3413   -1.4371 H     1    ESP         0.0058
     16 H          -4.2247   -1.8092   -1.4371 H     1    ESP         0.0060
     16 H          -4.0557   -2.2455   -1.4371 H     1    ESP         0.0061
     16 H          -3.7404   -2.5913   -1.4371 H     1    ESP         0.0061
     16 H          -3.3216   -2.7998   -1.4371 H     1    ESP         0.0061
     16 H          -2.8557   -2.8430   -1.4371 H     1    ESP         0.0060
     16 H          -3.8654   -1.5752   -1.7001 H     1    ESP         0.0052
     16 H          -3.7459   -2.0214   -1.7001 H     1    ESP         0.0054
     16 H          -3.4193   -2.3480   -1.7001 H     1    ESP         0.0054
     16 H          -2.9732   -2.4675   -1.7001 H     1    ESP         0.0052
     16 H          -3.2029   -1.9732   -1.8642 H     1    ESP         0.0044
     16 H          -0.2362   -2.7472    1.8642 H     1    ESP         0.0072
     16 H          -0.9121   -3.1220    1.7001 H     1    ESP         0.0069
     16 H          -0.4660   -3.2416    1.7001 H     1    ESP         0.0076
     16 H          -0.0198   -3.1220    1.7001 H     1    ESP         0.0082
     16 H           0.3068   -2.7954    1.7001 H     1    ESP         0.0089
     16 H          -1.2332   -3.3653    1.4371 H     1    ESP         0.0072
     16 H          -0.8144   -3.5739    1.4371 H     1    ESP         0.0077
     16 H          -0.3485   -3.6170    1.4371 H     1    ESP         0.0082
     16 H           0.1016   -3.4890    1.4371 H     1    ESP         0.0088
     16 H           0.4750   -3.2070    1.4371 H     1    ESP         0.0097
     16 H          -1.6243   -3.4240    1.0907 H     1    ESP         0.0076
     16 H          -1.2560   -3.7177    1.0907 H     1    ESP         0.0078
     16 H          -0.8176   -3.8898    1.0907 H     1    ESP         0.0081
     16 H          -0.3479   -3.9250    1.0907 H     1    ESP         0.0084
     16 H           0.1113   -3.8202    1.0907 H     1    ESP         0.0090
     16 H           0.5192   -3.5847    1.0907 H     1    ESP         0.0099
     16 H          -2.0207   -3.2469    0.6808 H     1    ESP         0.0086
     16 H          -1.7354   -3.6187    0.6808 H     1    ESP         0.0081
     16 H          -1.3636   -3.9040    0.6808 H     1    ESP         0.0081
     16 H          -0.9306   -4.0833    0.6808 H     1    ESP         0.0082
     16 H          -0.4660   -4.1445    0.6808 H     1    ESP         0.0085
     16 H          -0.0013   -4.0833    0.6808 H     1    ESP         0.0090
     16 H           0.4317   -3.9040    0.6808 H     1    ESP         0.0097
     16 H          -2.0079   -3.4696    0.2314 H     1    ESP         0.0088
     16 H          -1.6809   -3.8179    0.2314 H     1    ESP         0.0083
     16 H          -1.2775   -4.0739    0.2314 H     1    ESP         0.0082
     16 H          -0.8231   -4.2215    0.2314 H     1    ESP         0.0084
     16 H          -0.3463   -4.2515    0.2314 H     1    ESP         0.0087
     16 H           0.1230   -4.1620    0.2314 H     1    ESP         0.0092
     16 H          -2.0079   -3.4696   -0.2314 H     1    ESP         0.0088
     16 H          -1.6809   -3.8179   -0.2314 H     1    ESP         0.0083
     16 H          -1.2775   -4.0739   -0.2314 H     1    ESP         0.0082
     16 H          -0.8231   -4.2215   -0.2314 H     1    ESP         0.0084
     16 H          -0.3463   -4.2515   -0.2314 H     1    ESP         0.0087
     16 H           0.1230   -4.1620   -0.2314 H     1    ESP         0.0092
     16 H          -2.0207   -3.2469   -0.6808 H     1    ESP         0.0086
     16 H          -1.7354   -3.6187   -0.6808 H     1    ESP         0.0081
     16 H          -1.3636   -3.9040   -0.6808 H     1    ESP         0.0081
     16 H          -0.9306   -4.0833   -0.6808 H     1    ESP         0.0082
     16 H          -0.4660   -4.1445   -0.6808 H     1    ESP         0.0085
     16 H          -0.0013   -4.0833   -0.6808 H     1    ESP         0.0090
     16 H           0.4317   -3.9040   -0.6808 H     1    ESP         0.0097
     16 H          -1.6243   -3.4240   -1.0907 H     1    ESP         0.0076
     16 H          -1.2560   -3.7177   -1.0907 H     1    ESP         0.0078
     16 H          -0.8176   -3.8898   -1.0907 H     1    ESP         0.0081
     16 H          -0.3479   -3.9250   -1.0907 H     1    ESP         0.0084
     16 H           0.1113   -3.8202   -1.0907 H     1    ESP         0.0090
     16 H           0.5192   -3.5847   -1.0907 H     1    ESP         0.0099
     16 H          -1.2332   -3.3653   -1.4371 H     1    ESP         0.0072
     16 H          -0.8144   -3.5739   -1.4371 H     1    ESP         0.0077
     16 H          -0.3485   -3.6170   -1.4371 H     1    ESP         0.0082
     16 H           0.1016   -3.4890   -1.4371 H     1    ESP         0.0088
     16 H           0.4750   -3.2070   -1.4371 H     1    ESP         0.0097
     16 H          -0.9121   -3.1220   -1.7001 H     1    ESP         0.0069
     16 H          -0.4660   -3.2416   -1.7001 H     1    ESP         0.0076
     16 H          -0.0198   -3.1220   -1.7001 H     1    ESP         0.0082
     16 H           0.3068   -2.7954   -1.7001 H     1    ESP         0.0089
     16 H          -0.2362   -2.7472   -1.8642 H     1    ESP         0.0072
     16 H           1.4822   -2.8455    1.8642 H     1    ESP         0.0073
     16 H           0.8197   -2.4476    1.7001 H     1    ESP         0.0097
     16 H           0.9392   -2.8937    1.7001 H     1    ESP         0.0084
     16 H           1.2658   -3.2203    1.7001 H     1    ESP         0.0071
     16 H           1.7119   -3.3399    1.7001 H     1    ESP         0.0062
     16 H           0.6294   -3.1179    1.4371 H     1    ESP         0.0099
     16 H           0.9447   -3.4636    1.4371 H     1    ESP         0.0079
     16 H           1.3635   -3.6722    1.4371 H     1    ESP         0.0065
     16 H           1.8294   -3.7154    1.4371 H     1    ESP         0.0057
     16 H           2.2794   -3.5873    1.4371 H     1    ESP         0.0053
     16 H           0.9219   -3.8160    1.0907 H     1    ESP         0.0078
     16 H           1.3603   -3.9881    1.0907 H     1    ESP         0.0063
     16 H           1.8300   -4.0233    1.0907 H     1    ESP         0.0055
     16 H           2.2892   -3.9185    1.0907 H     1    ESP         0.0050
     16 H           2.6971   -3.6830    1.0907 H     1    ESP         0.0049
     16 H           0.8143   -4.0023    0.6808 H     1    ESP         0.0082
     16 H           1.2473   -4.1817    0.6808 H     1    ESP         0.0065
     16 H           1.7119   -4.2428    0.6808 H     1    ESP         0.0055
     16 H           2.1766   -4.1817    0.6808 H     1    ESP         0.0050
     16 H           2.6095   -4.0023    0.6808 H     1    ESP         0.0047
     16 H           0.9004   -4.1722    0.2314 H     1    ESP         0.0077
     16 H           1.3548   -4.3198    0.2314 H     1    ESP         0.0062
     16 H           1.8316   -4.3498    0.2314 H     1    ESP         0.0053
     16 H           2.3009   -4.2603    0.2314 H     1    ESP         0.0048
     16 H           2.7332   -4.0569    0.2314 H     1    ESP         0.0045
     16 H           0.9004   -4.1722   -0.2314 H     1    ESP         0.0077
     16 H           1.3548   -4.3198   -0.2314 H     1    ESP         0.0062
     16 H           1.8316   -4.3498   -0.2314 H     1    ESP         0.0053
     16 H           2.3009   -4.2603   -0.2314 H     1    ESP         0.0048
     16 H           2.7332   -4.0569   -0.2314 H     1    ESP         0.0045
     16 H           0.8143   -4.0023   -0.6808 H     1    ESP         0.0082
     16 H           1.2473   -4.1817   -0.6808 H     1    ESP         0.0065
     16 H           1.7119   -4.2428   -0.6808 H     1    ESP         0.0055
     16 H           2.1766   -4.1817   -0.6808 H     1    ESP         0.0050
     16 H           2.6095   -4.0023   -0.6808 H     1    ESP         0.0047
     16 H           0.9219   -3.8160   -1.0907 H     1    ESP         0.0078
     16 H           1.3603   -3.9881   -1.0907 H     1    ESP         0.0063
     16 H           1.8300   -4.0233   -1.0907 H     1    ESP         0.0055
     16 H           2.2892   -3.9185   -1.0907 H     1    ESP         0.0050
     16 H           2.6971   -3.6830   -1.0907 H     1    ESP         0.0049
     16 H           0.6294   -3.1179   -1.4371 H     1    ESP         0.0099
     16 H           0.9447   -3.4636   -1.4371 H     1    ESP         0.0079
     16 H           1.3635   -3.6722   -1.4371 H     1    ESP         0.0065
     16 H           1.8294   -3.7154   -1.4371 H     1    ESP         0.0057
     16 H           2.2794   -3.5873   -1.4371 H     1    ESP         0.0053
     16 H           0.8197   -2.4476   -1.7001 H     1    ESP         0.0097
     16 H           0.9392   -2.8937   -1.7001 H     1    ESP         0.0084
     16 H           1.2658   -3.2203   -1.7001 H     1    ESP         0.0071
     16 H           1.7119   -3.3399   -1.7001 H     1    ESP         0.0062
     16 H           1.4822   -2.8455   -1.8642 H     1    ESP         0.0073
     16 H           4.7915   -1.5849   -0.2006 H     1    ESP         0.0014
     16 H           4.7304   -1.1202   -0.2006 H     1    ESP         0.0003
     16 H           4.7304   -2.0495   -0.2006 H     1    ESP         0.0021
     16 H           4.9023   -1.5849   -0.6501 H     1    ESP         0.0011
     16 H           4.8424   -1.1109   -0.6501 H     1    ESP         0.0001
     16 H           4.6665   -0.6667   -0.6501 H     1    ESP        -0.0015
     16 H           4.3857   -0.2801   -0.6501 H     1    ESP        -0.0045
     16 H           4.0176   -3.1942   -0.6501 H     1    ESP         0.0033
     16 H           4.3857   -2.8896   -0.6501 H     1    ESP         0.0028
     16 H           4.6665   -2.5031   -0.6501 H     1    ESP         0.0023
     16 H           4.8424   -2.0589   -0.6501 H     1    ESP         0.0018
     16 H           4.9023   -1.5849   -1.1129 H     1    ESP         0.0011
     16 H           4.8424   -1.1109   -1.1129 H     1    ESP         0.0002
     16 H           4.6665   -0.6667   -1.1129 H     1    ESP        -0.0012
     16 H           4.3857   -0.2801   -1.1129 H     1    ESP        -0.0035
     16 H           4.0176    0.0244   -1.1129 H     1    ESP        -0.0075
     16 H           3.5853   -3.3976   -1.1129 H     1    ESP         0.0037
     16 H           4.0176   -3.1942   -1.1129 H     1    ESP         0.0031
     16 H           4.3857   -2.8896   -1.1129 H     1    ESP         0.0026
     16 H           4.6665   -2.5031   -1.1129 H     1    ESP         0.0022
     16 H           4.8424   -2.0589   -1.1129 H     1    ESP         0.0017
     16 H           4.7915   -1.5849   -1.5623 H     1    ESP         0.0012
     16 H           4.7304   -1.1202   -1.5623 H     1    ESP         0.0004
     16 H           4.5510   -0.6873   -1.5623 H     1    ESP        -0.0007
     16 H           4.2657   -0.3155   -1.5623 H     1    ESP        -0.0024
     16 H           3.8939   -0.0302   -1.5623 H     1    ESP        -0.0050
     16 H           2.9963   -3.3801   -1.5623 H     1    ESP         0.0043
     16 H           3.4609   -3.3189   -1.5623 H     1    ESP         0.0036
     16 H           3.8939   -3.1396   -1.5623 H     1    ESP         0.0031
     16 H           4.2657   -2.8543   -1.5623 H     1    ESP         0.0026
     16 H           4.5510   -2.4825   -1.5623 H     1    ESP         0.0022
     16 H           4.7304   -2.0495   -1.5623 H     1    ESP         0.0017
     16 H           4.5764   -1.5849   -1.9722 H     1    ESP         0.0013
     16 H           4.5062   -1.1191   -1.9722 H     1    ESP         0.0006
     16 H           4.3019   -0.6948   -1.9722 H     1    ESP        -0.0003
     16 H           3.9815   -0.3495   -1.9722 H     1    ESP        -0.0015
     16 H           3.5736   -0.1140   -1.9722 H     1    ESP        -0.0028
     16 H           3.1144   -0.0092   -1.9722 H     1    ESP        -0.0032
     16 H           2.2062   -2.9533   -1.9722 H     1    ESP         0.0057
     16 H           2.6447   -3.1254   -1.9722 H     1    ESP         0.0046
     16 H           3.1144   -3.1606   -1.9722 H     1    ESP         0.0039
     16 H           3.5736   -3.0558   -1.9722 H     1    ESP         0.0032
     16 H           3.9815   -2.8203   -1.9722 H     1    ESP         0.0028
     16 H           4.3019   -2.4750   -1.9722 H     1    ESP         0.0023
     16 H           4.5062   -2.0506   -1.9722 H     1    ESP         0.0019
     16 H           4.2695   -1.5849   -2.3186 H     1    ESP         0.0016
     16 H           4.1835   -1.1250   -2.3186 H     1    ESP         0.0010
     16 H           3.9372   -0.7271   -2.3186 H     1    ESP         0.0003
     16 H           3.5638   -0.4452   -2.3186 H     1    ESP        -0.0003
     16 H           3.1138   -0.3171   -2.3186 H     1    ESP        -0.0001
     16 H           2.6479   -0.3603   -2.3186 H     1    ESP         0.0018
     16 H           2.2290   -0.5689   -2.3186 H     1    ESP         0.0048
     16 H           1.9138   -0.9146   -2.3186 H     1    ESP         0.0071
     16 H           1.7448   -1.3509   -2.3186 H     1    ESP         0.0075
     16 H           1.7448   -1.8188   -2.3186 H     1    ESP         0.0070
     16 H           1.9138   -2.2551   -2.3186 H     1    ESP         0.0061
     16 H           2.2290   -2.6009   -2.3186 H     1    ESP         0.0052
     16 H           2.6479   -2.8095   -2.3186 H     1    ESP         0.0043
     16 H           3.1138   -2.8527   -2.3186 H     1    ESP         0.0036
     16 H           3.5638   -2.7246   -2.3186 H     1    ESP         0.0030
     16 H           3.9372   -2.4426   -2.3186 H     1    ESP         0.0025
     16 H           4.1835   -2.0448   -2.3186 H     1    ESP         0.0021
     16 H           3.8886   -1.5849   -2.5816 H     1    ESP         0.0019
     16 H           3.7690   -1.1388   -2.5816 H     1    ESP         0.0014
     16 H           3.4424   -0.8122   -2.5816 H     1    ESP         0.0012
     16 H           2.9963   -0.6926   -2.5816 H     1    ESP         0.0017
     16 H           2.5502   -0.8122   -2.5816 H     1    ESP         0.0032
     16 H           2.2236   -1.1388   -2.5816 H     1    ESP         0.0047
     16 H           2.1040   -1.5849   -2.5816 H     1    ESP         0.0052
     16 H           2.2236   -2.0310   -2.5816 H     1    ESP         0.0049
     16 H           2.5502   -2.3576   -2.5816 H     1    ESP         0.0042
     16 H           2.9963   -2.4772   -2.5816 H     1    ESP         0.0035
     16 H           3.4424   -2.3576   -2.5816 H     1    ESP         0.0029
     16 H           3.7690   -2.0310   -2.5816 H     1    ESP         0.0024
     16 H           3.4558   -1.5849   -2.7457 H     1    ESP         0.0023
     16 H           3.2260   -1.1870   -2.7457 H     1    ESP         0.0022
     16 H           2.7665   -1.1870   -2.7457 H     1    ESP         0.0030
     16 H           2.5368   -1.5849   -2.7457 H     1    ESP         0.0038
     16 H           2.7665   -1.9828   -2.7457 H     1    ESP         0.0036
     16 H           3.2260   -1.9828   -2.7457 H     1    ESP         0.0029
     16 H           2.9963   -1.5849   -2.8015 H     1    ESP         0.0029
     16 H           2.9963   -1.5849    2.8015 H     1    ESP         0.0029
     16 H           3.4558   -1.5849    2.7457 H     1    ESP         0.0023
     16 H           3.2260   -1.1870    2.7457 H     1    ESP         0.0022
     16 H           2.7665   -1.1870    2.7457 H     1    ESP         0.0030
     16 H           2.5368   -1.5849    2.7457 H     1    ESP         0.0038
     16 H           2.7665   -1.9828    2.7457 H     1    ESP         0.0036
     16 H           3.2260   -1.9828    2.7457 H     1    ESP         0.0029
     16 H           3.8886   -1.5849    2.5816 H     1    ESP         0.0019
     16 H           3.7690   -1.1388    2.5816 H     1    ESP         0.0014
     16 H           3.4424   -0.8122    2.5816 H     1    ESP         0.0012
     16 H           2.9963   -0.6926    2.5816 H     1    ESP         0.0017
     16 H           2.5502   -0.8122    2.5816 H     1    ESP         0.0032
     16 H           2.2236   -1.1388    2.5816 H     1    ESP         0.0047
     16 H           2.1040   -1.5849    2.5816 H     1    ESP         0.0052
     16 H           2.2236   -2.0310    2.5816 H     1    ESP         0.0049
     16 H           2.5502   -2.3576    2.5816 H     1    ESP         0.0042
     16 H           2.9963   -2.4772    2.5816 H     1    ESP         0.0035
     16 H           3.4424   -2.3576    2.5816 H     1    ESP         0.0029
     16 H           3.7690   -2.0310    2.5816 H     1    ESP         0.0024
     16 H           4.2695   -1.5849    2.3186 H     1    ESP         0.0016
     16 H           4.1835   -1.1250    2.3186 H     1    ESP         0.0010
     16 H           3.9372   -0.7271    2.3186 H     1    ESP         0.0003
     16 H           3.5638   -0.4452    2.3186 H     1    ESP        -0.0003
     16 H           3.1138   -0.3171    2.3186 H     1    ESP        -0.0001
     16 H           2.6479   -0.3603    2.3186 H     1    ESP         0.0018
     16 H           2.2290   -0.5689    2.3186 H     1    ESP         0.0048
     16 H           1.9138   -0.9146    2.3186 H     1    ESP         0.0071
     16 H           1.7448   -1.3509    2.3186 H     1    ESP         0.0075
     16 H           1.7448   -1.8188    2.3186 H     1    ESP         0.0070
     16 H           1.9138   -2.2551    2.3186 H     1    ESP         0.0061
     16 H           2.2290   -2.6009    2.3186 H     1    ESP         0.0052
     16 H           2.6479   -2.8095    2.3186 H     1    ESP         0.0043
     16 H           3.1138   -2.8527    2.3186 H     1    ESP         0.0036
     16 H           3.5638   -2.7246    2.3186 H     1    ESP         0.0030
     16 H           3.9372   -2.4426    2.3186 H     1    ESP         0.0025
     16 H           4.1835   -2.0448    2.3186 H     1    ESP         0.0021
     16 H           4.5764   -1.5849    1.9722 H     1    ESP         0.0013
     16 H           4.5062   -1.1191    1.9722 H     1    ESP         0.0006
     16 H           4.3019   -0.6948    1.9722 H     1    ESP        -0.0003
     16 H           3.9815   -0.3495    1.9722 H     1    ESP        -0.0015
     16 H           3.5736   -0.1140    1.9722 H     1    ESP        -0.0028
     16 H           3.1144   -0.0092    1.9722 H     1    ESP        -0.0032
     16 H           2.2062   -2.9533    1.9722 H     1    ESP         0.0057
     16 H           2.6447   -3.1254    1.9722 H     1    ESP         0.0046
     16 H           3.1144   -3.1606    1.9722 H     1    ESP         0.0039
     16 H           3.5736   -3.0558    1.9722 H     1    ESP         0.0032
     16 H           3.9815   -2.8203    1.9722 H     1    ESP         0.0028
     16 H           4.3019   -2.4750    1.9722 H     1    ESP         0.0023
     16 H           4.5062   -2.0506    1.9722 H     1    ESP         0.0019
     16 H           4.7915   -1.5849    1.5623 H     1    ESP         0.0012
     16 H           4.7304   -1.1202    1.5623 H     1    ESP         0.0004
     16 H           4.5510   -0.6873    1.5623 H     1    ESP        -0.0007
     16 H           4.2657   -0.3155    1.5623 H     1    ESP        -0.0024
     16 H           3.8939   -0.0302    1.5623 H     1    ESP        -0.0050
     16 H           2.9963   -3.3801    1.5623 H     1    ESP         0.0043
     16 H           3.4609   -3.3189    1.5623 H     1    ESP         0.0036
     16 H           3.8939   -3.1396    1.5623 H     1    ESP         0.0031
     16 H           4.2657   -2.8543    1.5623 H     1    ESP         0.0026
     16 H           4.5510   -2.4825    1.5623 H     1    ESP         0.0022
     16 H           4.7304   -2.0495    1.5623 H     1    ESP         0.0017
     16 H           4.9023   -1.5849    1.1129 H     1    ESP         0.0011
     16 H           4.8424   -1.1109    1.1129 H     1    ESP         0.0002
     16 H           4.6665   -0.6667    1.1129 H     1    ESP        -0.0012
     16 H           4.3857   -0.2801    1.1129 H     1    ESP        -0.0035
     16 H           4.0176    0.0244    1.1129 H     1    ESP        -0.0075
     16 H           3.5853   -3.3976    1.1129 H     1    ESP         0.0037
     16 H           4.0176   -3.1942    1.1129 H     1    ESP         0.0031
     16 H           4.3857   -2.8896    1.1129 H     1    ESP         0.0026
     16 H           4.6665   -2.5031    1.1129 H     1    ESP         0.0022
     16 H           4.8424   -2.0589    1.1129 H     1    ESP         0.0017
     16 H           4.9023   -1.5849    0.6501 H     1    ESP         0.0011
     16 H           4.8424   -1.1109    0.6501 H     1    ESP         0.0001
     16 H           4.6665   -0.6667    0.6501 H     1    ESP        -0.0015
     16 H           4.3857   -0.2801    0.6501 H     1    ESP        -0.0045
     16 H           4.0176   -3.1942    0.6501 H     1    ESP         0.0033
     16 H           4.3857   -2.8896    0.6501 H     1    ESP         0.0028
     16 H           4.6665   -2.5031    0.6501 H     1    ESP         0.0023
     16 H           4.8424   -2.0589    0.6501 H     1    ESP         0.0018
     16 H           4.7915   -1.5849    0.2006 H     1    ESP         0.0014
     16 H           4.7304   -1.1202    0.2006 H     1    ESP         0.0003
     16 H           4.7304   -2.0495    0.2006 H     1    ESP         0.0021
     16 H          -0.7265    1.2774    3.1500 H     1    ESP        -0.0031
     16 H          -0.2782    1.2774    3.1179 H     1    ESP        -0.0033
     16 H          -0.5023    1.6656    3.1179 H     1    ESP        -0.0032
     16 H          -0.9506    1.6656    3.1179 H     1    ESP        -0.0029
     16 H          -1.1748    1.2774    3.1179 H     1    ESP        -0.0028
     16 H          -0.9506    0.8892    3.1179 H     1    ESP        -0.0029
     16 H          -0.5023    0.8892    3.1179 H     1    ESP        -0.0031
     16 H           0.1610    1.2774    3.0224 H     1    ESP        -0.0036
     16 H           0.0421    1.7211    3.0224 H     1    ESP        -0.0037
     16 H          -0.2828    2.0460    3.0224 H     1    ESP        -0.0034
     16 H          -0.7265    2.1649    3.0224 H     1    ESP        -0.0030
     16 H          -1.1702    2.0460    3.0224 H     1    ESP        -0.0026
     16 H          -1.4951    1.7211    3.0224 H     1    ESP        -0.0024
     16 H          -1.6140    1.2774    3.0224 H     1    ESP        -0.0024
     16 H          -1.4951    0.8337    3.0224 H     1    ESP        -0.0027
     16 H          -1.1702    0.5088    3.0224 H     1    ESP        -0.0029
     16 H          -0.7265    0.3899    3.0224 H     1    ESP        -0.0029
     16 H          -0.2828    0.5088    3.0224 H     1    ESP        -0.0029
     16 H           0.0421    0.8337    3.0224 H     1    ESP        -0.0032
     16 H           0.5821    1.2774    2.8653 H     1    ESP        -0.0041
     16 H           0.5031    1.7249    2.8653 H     1    ESP        -0.0044
     16 H           0.2759    2.1185    2.8653 H     1    ESP        -0.0042
     16 H          -0.0722    2.4106    2.8653 H     1    ESP        -0.0037
     16 H          -0.4993    2.5661    2.8653 H     1    ESP        -0.0031
     16 H          -0.9537    2.5661    2.8653 H     1    ESP        -0.0026
     16 H          -1.3808    2.4106    2.8653 H     1    ESP        -0.0022
     16 H          -1.7289    2.1185    2.8653 H     1    ESP        -0.0019
     16 H          -1.9561    1.7249    2.8653 H     1    ESP        -0.0018
     16 H          -2.0351    1.2774    2.8653 H     1    ESP        -0.0019
     16 H          -1.9561    0.8298    2.8653 H     1    ESP        -0.0022
     16 H          -1.7289    0.4363    2.8653 H     1    ESP        -0.0027
     16 H          -1.3808    0.1441    2.8653 H     1    ESP        -0.0030
     16 H          -0.9537   -0.0113    2.8653 H     1    ESP        -0.0029
     16 H          -0.4993   -0.0113    2.8653 H     1    ESP        -0.0026
     16 H          -0.0722    0.1441    2.8653 H     1    ESP        -0.0024
     16 H           0.2759    0.4363    2.8653 H     1    ESP        -0.0025
     16 H           0.5031    0.8298    2.8653 H     1    ESP        -0.0033
     16 H           0.9765    1.2774    2.6499 H     1    ESP        -0.0050
     16 H           0.9134    1.7369    2.6499 H     1    ESP        -0.0055
     16 H           0.7286    2.1623    2.6499 H     1    ESP        -0.0052
     16 H           0.4359    2.5220    2.6499 H     1    ESP        -0.0045
     16 H           0.0570    2.7895    2.6499 H     1    ESP        -0.0038
     16 H          -0.3800    2.9448    2.6499 H     1    ESP        -0.0031
     16 H          -0.8427    2.9764    2.6499 H     1    ESP        -0.0026
     16 H          -1.2968    2.8821    2.6499 H     1    ESP        -0.0020
     16 H          -1.7086    2.6687    2.6499 H     1    ESP        -0.0016
     16 H          -2.0475    2.3521    2.6499 H     1    ESP        -0.0012
     16 H          -2.2885    1.9559    2.6499 H     1    ESP        -0.0010
     16 H          -2.4136    1.5093    2.6499 H     1    ESP        -0.0009
     16 H          -2.4136    1.0455    2.6499 H     1    ESP        -0.0012
     16 H          -1.7086   -0.1139    2.6499 H     1    ESP        -0.0031
     16 H          -1.2968   -0.3273    2.6499 H     1    ESP        -0.0032
     16 H          -0.8427   -0.4217    2.6499 H     1    ESP        -0.0028
     16 H          -0.3800   -0.3900    2.6499 H     1    ESP        -0.0021
     16 H           0.7286    0.3925    2.6499 H     1    ESP        -0.0019
     16 H           0.9134    0.8179    2.6499 H     1    ESP        -0.0036
     16 H           1.3363    1.2774    2.3806 H     1    ESP        -0.0069
     16 H           1.2846    1.7364    2.3806 H     1    ESP        -0.0075
     16 H           1.1320    2.1724    2.3806 H     1    ESP        -0.0069
     16 H           0.8863    2.5635    2.3806 H     1    ESP        -0.0058
     16 H           0.5596    2.8902    2.3806 H     1    ESP        -0.0048
     16 H           0.1685    3.1359    2.3806 H     1    ESP        -0.0039
     16 H          -0.2675    3.2885    2.3806 H     1    ESP        -0.0031
     16 H          -0.7265    3.3402    2.3806 H     1    ESP        -0.0025
     16 H          -1.1855    3.2885    2.3806 H     1    ESP        -0.0019
     16 H          -1.6215    3.1359    2.3806 H     1    ESP        -0.0014
     16 H          -2.0126    2.8902    2.3806 H     1    ESP        -0.0009
     16 H          -2.3393    2.5635    2.3806 H     1    ESP        -0.0004
     16 H          -2.5850    2.1724    2.3806 H     1    ESP         0.0000
     16 H          -2.7376    1.7364    2.3806 H     1    ESP         0.0003
     16 H           1.4836    2.1622    2.0628 H     1    ESP        -0.0099
     16 H           1.2762    2.5644    2.0628 H     1    ESP        -0.0079
     16 H           0.9964    2.9202    2.0628 H     1    ESP        -0.0062
     16 H           0.6544    3.2166    2.0628 H     1    ESP        -0.0049
     16 H           0.2624    3.4429    2.0628 H     1    ESP        -0.0039
     16 H          -0.1652    3.5909    2.0628 H     1    ESP        -0.0031
     16 H          -0.6132    3.6553    2.0628 H     1    ESP        -0.0024
     16 H          -1.0653    3.6338    2.0628 H     1    ESP        -0.0017
     16 H          -1.5051    3.5271    2.0628 H     1    ESP        -0.0011
     16 H          -1.9168    3.3391    2.0628 H     1    ESP        -0.0006
     16 H          -2.2855    3.0765    2.0628 H     1    ESP        -0.0000
     16 H          -2.5978    2.7490    2.0628 H     1    ESP         0.0006
     16 H          -2.8425    2.3683    2.0628 H     1    ESP         0.0012
     16 H           1.3353    2.9421    1.7030 H     1    ESP        -0.0082
     16 H           1.0243    3.2666    1.7030 H     1    ESP        -0.0062
     16 H           0.6629    3.5339    1.7030 H     1    ESP        -0.0047
     16 H           0.2616    3.7363    1.7030 H     1    ESP        -0.0037
     16 H          -0.1682    3.8679    1.7030 H     1    ESP        -0.0028
     16 H          -0.6140    3.9250    1.7030 H     1    ESP        -0.0021
     16 H          -1.0631    3.9059    1.7030 H     1    ESP        -0.0014
     16 H          -1.5025    3.8112    1.7030 H     1    ESP        -0.0007
     16 H          -1.9195    3.6436    1.7030 H     1    ESP        -0.0001
     16 H          -2.3022    3.4079    1.7030 H     1    ESP         0.0005
     16 H          -2.6396    3.1110    1.7030 H     1    ESP         0.0012
     16 H          -2.9220    2.7613    1.7030 H     1    ESP         0.0021
     16 H           1.5916    2.9616    1.3086 H     1    ESP        -0.0108
     16 H           1.2996    3.3035    1.3086 H     1    ESP        -0.0077
     16 H           0.9577    3.5955    1.3086 H     1    ESP        -0.0056
     16 H           0.5743    3.8304    1.3086 H     1    ESP        -0.0043
     16 H           0.1589    4.0025    1.3086 H     1    ESP        -0.0032
     16 H          -0.2783    4.1075    1.3086 H     1    ESP        -0.0024
     16 H          -0.7265    4.1427    1.3086 H     1    ESP        -0.0016
     16 H          -1.1747    4.1075    1.3086 H     1    ESP        -0.0008
     16 H          -1.6119    4.0025    1.3086 H     1    ESP        -0.0001
     16 H          -2.0273    3.8304    1.3086 H     1    ESP         0.0005
     16 H          -2.4107    3.5955    1.3086 H     1    ESP         0.0012
     16 H          -2.7526    3.3035    1.3086 H     1    ESP         0.0020
     16 H          -3.0446    2.9616    1.3086 H     1    ESP         0.0031
     16 H           1.4891    3.3331    0.8875 H     1    ESP        -0.0091
     16 H           1.1579    3.6404    0.8875 H     1    ESP        -0.0064
     16 H           0.7847    3.8949    0.8875 H     1    ESP        -0.0047
     16 H           0.3777    4.0909    0.8875 H     1    ESP        -0.0035
     16 H          -0.0539    4.2240    0.8875 H     1    ESP        -0.0026
     16 H          -0.5006    4.2913    0.8875 H     1    ESP        -0.0017
     16 H          -0.9524    4.2913    0.8875 H     1    ESP        -0.0009
     16 H          -1.3990    4.2240    0.8875 H     1    ESP        -0.0001
     16 H          -1.8307    4.0909    0.8875 H     1    ESP         0.0007
     16 H          -2.2377    3.8949    0.8875 H     1    ESP         0.0014
     16 H          -2.6109    3.6404    0.8875 H     1    ESP         0.0021
     16 H          -2.9421    3.3331    0.8875 H     1    ESP         0.0031
     16 H           1.5957    3.3581    0.4483 H     1    ESP        -0.0102
     16 H           1.2680    3.6740    0.4483 H     1    ESP        -0.0070
     16 H           0.8978    3.9388    0.4483 H     1    ESP        -0.0050
     16 H           0.4929    4.1470    0.4483 H     1    ESP        -0.0037
     16 H           0.0621    4.2939    0.4483 H     1    ESP        -0.0027
     16 H          -0.3855    4.3766    0.4483 H     1    ESP        -0.0018
     16 H          -0.8404    4.3933    0.4483 H     1    ESP        -0.0009
     16 H          -1.2928    4.3435    0.4483 H     1    ESP        -0.0000
     16 H          -1.7332    4.2283    0.4483 H     1    ESP         0.0008
     16 H          -2.1521    4.0503    0.4483 H     1    ESP         0.0016
     16 H          -2.5407    3.8132    0.4483 H     1    ESP         0.0023
     16 H          -2.8906    3.5220    0.4483 H     1    ESP         0.0032
     16 H          -3.1943    3.1830    0.4483 H     1    ESP         0.0047
     16 H           1.6541    3.3402    0.0000 H     1    ESP        -0.0109
     16 H           1.3363    3.6580    0.0000 H     1    ESP        -0.0074
     16 H           0.9765    3.9273    0.0000 H     1    ESP        -0.0053
     16 H           0.5821    4.1427    0.0000 H     1    ESP        -0.0039
     16 H           0.1610    4.2998    0.0000 H     1    ESP        -0.0029
     16 H          -0.2782    4.3953    0.0000 H     1    ESP        -0.0020
     16 H          -0.7265    4.4274    0.0000 H     1    ESP        -0.0011
     16 H          -1.1748    4.3953    0.0000 H     1    ESP        -0.0002
     16 H          -1.6140    4.2998    0.0000 H     1    ESP         0.0007
     16 H          -2.0351    4.1427    0.0000 H     1    ESP         0.0015
     16 H          -2.4295    3.9273    0.0000 H     1    ESP         0.0022
     16 H          -2.7893    3.6580    0.0000 H     1    ESP         0.0030
     16 H          -3.1071    3.3402    0.0000 H     1    ESP         0.0042
     16 H           1.5957    3.3581   -0.4483 H     1    ESP        -0.0102
     16 H           1.2680    3.6740   -0.4483 H     1    ESP        -0.0070
     16 H           0.8978    3.9388   -0.4483 H     1    ESP        -0.0050
     16 H           0.4929    4.1470   -0.4483 H     1    ESP        -0.0037
     16 H           0.0621    4.2939   -0.4483 H     1    ESP        -0.0027
     16 H          -0.3855    4.3766   -0.4483 H     1    ESP        -0.0018
     16 H          -0.8404    4.3933   -0.4483 H     1    ESP        -0.0009
     16 H          -1.2928    4.3435   -0.4483 H     1    ESP        -0.0000
     16 H          -1.7332    4.2283   -0.4483 H     1    ESP         0.0008
     16 H          -2.1521    4.0503   -0.4483 H     1    ESP         0.0016
     16 H          -2.5407    3.8132   -0.4483 H     1    ESP         0.0023
     16 H          -2.8906    3.5220   -0.4483 H     1    ESP         0.0032
     16 H          -3.1943    3.1830   -0.4483 H     1    ESP         0.0047
     16 H           1.4891    3.3331   -0.8875 H     1    ESP        -0.0091
     16 H           1.1579    3.6404   -0.8875 H     1    ESP        -0.0064
     16 H           0.7847    3.8949   -0.8875 H     1    ESP        -0.0047
     16 H           0.3777    4.0909   -0.8875 H     1    ESP        -0.0035
     16 H          -0.0539    4.2240   -0.8875 H     1    ESP        -0.0026
     16 H          -0.5006    4.2913   -0.8875 H     1    ESP        -0.0017
     16 H          -0.9524    4.2913   -0.8875 H     1    ESP        -0.0009
     16 H          -1.3990    4.2240   -0.8875 H     1    ESP        -0.0001
     16 H          -1.8307    4.0909   -0.8875 H     1    ESP         0.0007
     16 H          -2.2377    3.8949   -0.8875 H     1    ESP         0.0014
     16 H          -2.6109    3.6404   -0.8875 H     1    ESP         0.0021
     16 H          -2.9421    3.3331   -0.8875 H     1    ESP         0.0031
     16 H           1.5916    2.9616   -1.3086 H     1    ESP        -0.0108
     16 H           1.2996    3.3035   -1.3086 H     1    ESP        -0.0077
     16 H           0.9577    3.5955   -1.3086 H     1    ESP        -0.0056
     16 H           0.5743    3.8304   -1.3086 H     1    ESP        -0.0043
     16 H           0.1589    4.0025   -1.3086 H     1    ESP        -0.0032
     16 H          -0.2783    4.1075   -1.3086 H     1    ESP        -0.0024
     16 H          -0.7265    4.1427   -1.3086 H     1    ESP        -0.0016
     16 H          -1.1747    4.1075   -1.3086 H     1    ESP        -0.0008
     16 H          -1.6119    4.0025   -1.3086 H     1    ESP        -0.0001
     16 H          -2.0273    3.8304   -1.3086 H     1    ESP         0.0005
     16 H          -2.4107    3.5955   -1.3086 H     1    ESP         0.0012
     16 H          -2.7526    3.3035   -1.3086 H     1    ESP         0.0020
     16 H          -3.0446    2.9616   -1.3086 H     1    ESP         0.0031
     16 H           1.3353    2.9421   -1.7030 H     1    ESP        -0.0082
     16 H           1.0243    3.2666   -1.7030 H     1    ESP        -0.0062
     16 H           0.6629    3.5339   -1.7030 H     1    ESP        -0.0047
     16 H           0.2616    3.7363   -1.7030 H     1    ESP        -0.0037
     16 H          -0.1682    3.8679   -1.7030 H     1    ESP        -0.0028
     16 H          -0.6140    3.9250   -1.7030 H     1    ESP        -0.0021
     16 H          -1.0631    3.9059   -1.7030 H     1    ESP        -0.0014
     16 H          -1.5025    3.8112   -1.7030 H     1    ESP        -0.0007
     16 H          -1.9195    3.6436   -1.7030 H     1    ESP        -0.0001
     16 H          -2.3022    3.4079   -1.7030 H     1    ESP         0.0005
     16 H          -2.6396    3.1110   -1.7030 H     1    ESP         0.0012
     16 H          -2.9220    2.7613   -1.7030 H     1    ESP         0.0021
     16 H           1.4836    2.1622   -2.0628 H     1    ESP        -0.0099
     16 H           1.2762    2.5644   -2.0628 H     1    ESP        -0.0079
     16 H           0.9964    2.9202   -2.0628 H     1    ESP        -0.0062
     16 H           0.6544    3.2166   -2.0628 H     1    ESP        -0.0049
     16 H           0.2624    3.4429   -2.0628 H     1    ESP        -0.0039
     16 H          -0.1652    3.5909   -2.0628 H     1    ESP        -0.0031
     16 H          -0.6132    3.6553   -2.0628 H     1    ESP        -0.0024
     16 H          -1.0653    3.6338   -2.0628 H     1    ESP        -0.0017
     16 H          -1.5051    3.5271   -2.0628 H     1    ESP        -0.0011
     16 H          -1.9168    3.3391   -2.0628 H     1    ESP        -0.0006
     16 H          -2.2855    3.0765   -2.0628 H     1    ESP        -0.0000
     16 H          -2.5978    2.7490   -2.0628 H     1    ESP         0.0006
     16 H          -2.8425    2.3683   -2.0628 H     1    ESP         0.0012
     16 H           1.3363    1.2774   -2.3806 H     1    ESP        -0.0069
     16 H           1.2846    1.7364   -2.3806 H     1    ESP        -0.0075
     16 H           1.1320    2.1724   -2.3806 H     1    ESP        -0.0069
     16 H           0.8863    2.5635   -2.3806 H     1    ESP        -0.0058
     16 H           0.5596    2.8902   -2.3806 H     1    ESP        -0.0048
     16 H           0.1685    3.1359   -2.3806 H     1    ESP        -0.0039
     16 H          -0.2675    3.2885   -2.3806 H     1    ESP        -0.0031
     16 H          -0.7265    3.3402   -2.3806 H     1    ESP        -0.0025
     16 H          -1.1855    3.2885   -2.3806 H     1    ESP        -0.0019
     16 H          -1.6215    3.1359   -2.3806 H     1    ESP        -0.0014
     16 H          -2.0126    2.8902   -2.3806 H     1    ESP        -0.0009
     16 H          -2.3393    2.5635   -2.3806 H     1    ESP        -0.0004
     16 H          -2.5850    2.1724   -2.3806 H     1    ESP         0.0000
     16 H          -2.7376    1.7364   -2.3806 H     1    ESP         0.0003
     16 H           0.9765    1.2774   -2.6499 H     1    ESP        -0.0050
     16 H           0.9134    1.7369   -2.6499 H     1    ESP        -0.0055
     16 H           0.7286    2.1623   -2.6499 H     1    ESP        -0.0052
     16 H           0.4359    2.5220   -2.6499 H     1    ESP        -0.0045
     16 H           0.0570    2.7895   -2.6499 H     1    ESP        -0.0038
     16 H          -0.3800    2.9448   -2.6499 H     1    ESP        -0.0031
     16 H          -0.8427    2.9764   -2.6499 H     1    ESP        -0.0026
     16 H          -1.2968    2.8821   -2.6499 H     1    ESP        -0.0020
     16 H          -1.7086    2.6687   -2.6499 H     1    ESP        -0.0016
     16 H          -2.0475    2.3521   -2.6499 H     1    ESP        -0.0012
     16 H          -2.2885    1.9559   -2.6499 H     1    ESP        -0.0010
     16 H          -2.4136    1.5093   -2.6499 H     1    ESP        -0.0009
     16 H          -2.4136    1.0455   -2.6499 H     1    ESP        -0.0012
     16 H          -1.7086   -0.1139   -2.6499 H     1    ESP        -0.0031
     16 H          -1.2968   -0.3273   -2.6499 H     1    ESP        -0.0032
     16 H          -0.8427   -0.4217   -2.6499 H     1    ESP        -0.0028
     16 H          -0.3800   -0.3900   -2.6499 H     1    ESP        -0.0021
     16 H           0.7286    0.3925   -2.6499 H     1    ESP        -0.0019
     16 H           0.9134    0.8179   -2.6499 H     1    ESP        -0.0036
     16 H           0.5821    1.2774   -2.8653 H     1    ESP        -0.0041
     16 H           0.5031    1.7249   -2.8653 H     1    ESP        -0.0044
     16 H           0.2759    2.1185   -2.8653 H     1    ESP        -0.0042
     16 H          -0.0722    2.4106   -2.8653 H     1    ESP        -0.0037
     16 H          -0.4993    2.5661   -2.8653 H     1    ESP        -0.0031
     16 H          -0.9537    2.5661   -2.8653 H     1    ESP        -0.0026
     16 H          -1.3808    2.4106   -2.8653 H     1    ESP        -0.0022
     16 H          -1.7289    2.1185   -2.8653 H     1    ESP        -0.0019
     16 H          -1.9561    1.7249   -2.8653 H     1    ESP        -0.0018
     16 H          -2.0351    1.2774   -2.8653 H     1    ESP        -0.0019
     16 H          -1.9561    0.8298   -2.8653 H     1    ESP        -0.0022
     16 H          -1.7289    0.4363   -2.8653 H     1    ESP        -0.0027
     16 H          -1.3808    0.1441   -2.8653 H     1    ESP        -0.0030
     16 H          -0.9537   -0.0113   -2.8653 H     1    ESP        -0.0029
     16 H          -0.4993   -0.0113   -2.8653 H     1    ESP        -0.0026
     16 H          -0.0722    0.1441   -2.8653 H     1    ESP        -0.0024
     16 H           0.2759    0.4363   -2.8653 H     1    ESP        -0.0025
     16 H           0.5031    0.8298   -2.8653 H     1    ESP        -0.0033
     16 H           0.1610    1.2774   -3.0224 H     1    ESP        -0.0036
     16 H           0.0421    1.7211   -3.0224 H     1    ESP        -0.0037
     16 H          -0.2828    2.0460   -3.0224 H     1    ESP        -0.0034
     16 H          -0.7265    2.1649   -3.0224 H     1    ESP        -0.0030
     16 H          -1.1702    2.0460   -3.0224 H     1    ESP        -0.0026
     16 H          -1.4951    1.7211   -3.0224 H     1    ESP        -0.0024
     16 H          -1.6140    1.2774   -3.0224 H     1    ESP        -0.0024
     16 H          -1.4951    0.8337   -3.0224 H     1    ESP        -0.0027
     16 H          -1.1702    0.5088   -3.0224 H     1    ESP        -0.0029
     16 H          -0.7265    0.3899   -3.0224 H     1    ESP        -0.0029
     16 H          -0.2828    0.5088   -3.0224 H     1    ESP        -0.0029
     16 H           0.0421    0.8337   -3.0224 H     1    ESP        -0.0032
     16 H          -0.2782    1.2774   -3.1179 H     1    ESP        -0.0033
     16 H          -0.5023    1.6656   -3.1179 H     1    ESP        -0.0032
     16 H          -0.9506    1.6656   -3.1179 H     1    ESP        -0.0029
     16 H          -1.1748    1.2774   -3.1179 H     1    ESP        -0.0028
     16 H          -0.9506    0.8892   -3.1179 H     1    ESP        -0.0029
     16 H          -0.5023    0.8892   -3.1179 H     1    ESP        -0.0031
     16 H          -0.7265    1.2774   -3.1500 H     1    ESP        -0.0031
     16 H          -2.2544    0.4737    2.7000 H     1    ESP        -0.0019
     16 H          -2.4888    0.8797    2.6590 H     1    ESP        -0.0011
     16 H          -2.7232    0.4737    2.6590 H     1    ESP        -0.0006
     16 H          -2.4888    0.0677    2.6590 H     1    ESP        -0.0013
     16 H          -2.0199    0.0677    2.6590 H     1    ESP        -0.0025
     16 H          -2.7161    1.2734    2.5372 H     1    ESP        -0.0002
     16 H          -3.0541    0.9354    2.5372 H     1    ESP         0.0006
     16 H          -3.1778    0.4737    2.5372 H     1    ESP         0.0007
     16 H          -3.0541    0.0120    2.5372 H     1    ESP         0.0002
     16 H          -2.9294    1.6428    2.3383 H     1    ESP         0.0009
     16 H          -3.2885    1.3415    2.3383 H     1    ESP         0.0018
     16 H          -3.5229    0.9354    2.3383 H     1    ESP         0.0021
     16 H          -3.6044    0.4737    2.3383 H     1    ESP         0.0020
     16 H          -3.5229    0.0120    2.3383 H     1    ESP         0.0016
     16 H          -3.2552    1.8916    2.0683 H     1    ESP         0.0026
     16 H          -3.6006    1.5690    2.0683 H     1    ESP         0.0034
     16 H          -3.8462    1.1651    2.0683 H     1    ESP         0.0037
     16 H          -3.9737    0.7100    2.0683 H     1    ESP         0.0036
     16 H          -3.9737    0.2374    2.0683 H     1    ESP         0.0031
     16 H          -3.8462   -0.2177    2.0683 H     1    ESP         0.0027
     16 H          -3.1518    2.3372    1.7355 H     1    ESP         0.0032
     16 H          -4.3227    0.4737    1.7355 H     1    ESP         0.0048
     16 H          -4.2708    0.0135    1.7355 H     1    ESP         0.0042
     16 H          -4.5477    0.0175    1.3500 H     1    ESP         0.0055
     16 H          -4.7530   -0.4357    0.4689 H     1    ESP         0.0071
     16 H          -4.7530   -0.4357   -0.4689 H     1    ESP         0.0071
     16 H          -4.5477    0.0175   -1.3500 H     1    ESP         0.0055
     16 H          -3.1518    2.3372   -1.7355 H     1    ESP         0.0032
     16 H          -4.3227    0.4737   -1.7355 H     1    ESP         0.0048
     16 H          -4.2708    0.0135   -1.7355 H     1    ESP         0.0042
     16 H          -3.2552    1.8916   -2.0683 H     1    ESP         0.0026
     16 H          -3.6006    1.5690   -2.0683 H     1    ESP         0.0034
     16 H          -3.8462    1.1651   -2.0683 H     1    ESP         0.0037
     16 H          -3.9737    0.7100   -2.0683 H     1    ESP         0.0036
     16 H          -3.9737    0.2374   -2.0683 H     1    ESP         0.0031
     16 H          -3.8462   -0.2177   -2.0683 H     1    ESP         0.0027
     16 H          -2.9294    1.6428   -2.3383 H     1    ESP         0.0009
     16 H          -3.2885    1.3415   -2.3383 H     1    ESP         0.0018
     16 H          -3.5229    0.9354   -2.3383 H     1    ESP         0.0021
     16 H          -3.6044    0.4737   -2.3383 H     1    ESP         0.0020
     16 H          -3.5229    0.0120   -2.3383 H     1    ESP         0.0016
     16 H          -2.7161    1.2734   -2.5372 H     1    ESP        -0.0002
     16 H          -3.0541    0.9354   -2.5372 H     1    ESP         0.0006
     16 H          -3.1778    0.4737   -2.5372 H     1    ESP         0.0007
     16 H          -3.0541    0.0120   -2.5372 H     1    ESP         0.0002
     16 H          -2.4888    0.8797   -2.6590 H     1    ESP        -0.0011
     16 H          -2.7232    0.4737   -2.6590 H     1    ESP        -0.0006
     16 H          -2.4888    0.0677   -2.6590 H     1    ESP        -0.0013
     16 H          -2.0199    0.0677   -2.6590 H     1    ESP        -0.0025
     16 H          -2.2544    0.4737   -2.7000 H     1    ESP        -0.0019
     16 H          -2.1294   -0.8942    2.7000 H     1    ESP        -0.0010
     16 H          -1.6605   -0.8942    2.6590 H     1    ESP        -0.0017
     16 H          -1.8949   -0.4881    2.6590 H     1    ESP        -0.0022
     16 H          -2.3638   -0.4881    2.6590 H     1    ESP        -0.0013
     16 H          -2.5982   -0.8942    2.6590 H     1    ESP        -0.0002
     16 H          -2.3638   -1.3002    2.6590 H     1    ESP         0.0000
     16 H          -1.8949   -1.3002    2.6590 H     1    ESP        -0.0005
     16 H          -2.9291   -0.4324    2.5372 H     1    ESP        -0.0000
     16 H          -3.0528   -0.8942    2.5372 H     1    ESP         0.0007
     16 H          -2.9291   -1.3559    2.5372 H     1    ESP         0.0011
     16 H          -2.5911   -1.6939    2.5372 H     1    ESP         0.0011
     16 H          -2.1294   -1.8176    2.5372 H     1    ESP         0.0008
     16 H          -1.6676   -1.6939    2.5372 H     1    ESP         0.0003
     16 H          -3.3980   -0.4324    2.3383 H     1    ESP         0.0013
     16 H          -3.4794   -0.8942    2.3383 H     1    ESP         0.0017
     16 H          -3.3980   -1.3559    2.3383 H     1    ESP         0.0021
     16 H          -3.1635   -1.7619    2.3383 H     1    ESP         0.0023
     16 H          -2.8044   -2.0633    2.3383 H     1    ESP         0.0022
     16 H          -2.3638   -2.2236    2.3383 H     1    ESP         0.0020
     16 H          -1.8949   -2.2236    2.3383 H     1    ESP         0.0018
     16 H          -3.8487   -0.6578    2.0683 H     1    ESP         0.0027
     16 H          -3.8487   -1.1305    2.0683 H     1    ESP         0.0031
     16 H          -3.7212   -1.5856    2.0683 H     1    ESP         0.0034
     16 H          -3.4756   -1.9894    2.0683 H     1    ESP         0.0036
     16 H          -3.1302   -2.3120    2.0683 H     1    ESP         0.0035
     16 H          -2.7106   -2.5295    2.0683 H     1    ESP         0.0033
     16 H          -2.2478   -2.6256    2.0683 H     1    ESP         0.0031
     16 H          -4.1458   -0.4339    1.7355 H     1    ESP         0.0039
     16 H          -4.1977   -0.8942    1.7355 H     1    ESP         0.0041
     16 H          -2.5896   -2.9106    1.7355 H     1    ESP         0.0044
     16 H          -2.1294   -2.9625    1.7355 H     1    ESP         0.0044
     16 H          -4.4227   -0.4380    1.3500 H     1    ESP         0.0052
     16 H          -2.1294   -3.2324    1.3500 H     1    ESP         0.0056
     16 H          -4.4227   -0.4380   -1.3500 H     1    ESP         0.0052
     16 H          -2.1294   -3.2324   -1.3500 H     1    ESP         0.0056
     16 H          -4.1458   -0.4339   -1.7355 H     1    ESP         0.0039
     16 H          -4.1977   -0.8942   -1.7355 H     1    ESP         0.0041
     16 H          -2.5896   -2.9106   -1.7355 H     1    ESP         0.0044
     16 H          -2.1294   -2.9625   -1.7355 H     1    ESP         0.0044
     16 H          -3.8487   -0.6578   -2.0683 H     1    ESP         0.0027
     16 H          -3.8487   -1.1305   -2.0683 H     1    ESP         0.0031
     16 H          -3.7212   -1.5856   -2.0683 H     1    ESP         0.0034
     16 H          -3.4756   -1.9894   -2.0683 H     1    ESP         0.0036
     16 H          -3.1302   -2.3120   -2.0683 H     1    ESP         0.0035
     16 H          -2.7106   -2.5295   -2.0683 H     1    ESP         0.0033
     16 H          -2.2478   -2.6256   -2.0683 H     1    ESP         0.0031
     16 H          -3.3980   -0.4324   -2.3383 H     1    ESP         0.0013
     16 H          -3.4794   -0.8942   -2.3383 H     1    ESP         0.0017
     16 H          -3.3980   -1.3559   -2.3383 H     1    ESP         0.0021
     16 H          -3.1635   -1.7619   -2.3383 H     1    ESP         0.0023
     16 H          -2.8044   -2.0633   -2.3383 H     1    ESP         0.0022
     16 H          -2.3638   -2.2236   -2.3383 H     1    ESP         0.0020
     16 H          -1.8949   -2.2236   -2.3383 H     1    ESP         0.0018
     16 H          -2.9291   -0.4324   -2.5372 H     1    ESP        -0.0000
     16 H          -3.0528   -0.8942   -2.5372 H     1    ESP         0.0007
     16 H          -2.9291   -1.3559   -2.5372 H     1    ESP         0.0011
     16 H          -2.5911   -1.6939   -2.5372 H     1    ESP         0.0011
     16 H          -2.1294   -1.8176   -2.5372 H     1    ESP         0.0008
     16 H          -1.6676   -1.6939   -2.5372 H     1    ESP         0.0003
     16 H          -1.6605   -0.8942   -2.6590 H     1    ESP        -0.0017
     16 H          -1.8949   -0.4881   -2.6590 H     1    ESP        -0.0022
     16 H          -2.3638   -0.4881   -2.6590 H     1    ESP        -0.0013
     16 H          -2.5982   -0.8942   -2.6590 H     1    ESP        -0.0002
     16 H          -2.3638   -1.3002   -2.6590 H     1    ESP         0.0000
     16 H          -1.8949   -1.3002   -2.6590 H     1    ESP        -0.0005
     16 H          -2.1294   -0.8942   -2.7000 H     1    ESP        -0.0010
     16 H          -0.7717   -1.3096    2.7000 H     1    ESP        -0.0001
     16 H          -0.3028   -1.3096    2.6590 H     1    ESP         0.0008
     16 H          -0.5373   -0.9035    2.6590 H     1    ESP        -0.0009
     16 H          -1.0061   -0.9035    2.6590 H     1    ESP        -0.0016
     16 H          -1.2405   -1.3096    2.6590 H     1    ESP        -0.0006
     16 H          -1.0061   -1.7156    2.6590 H     1    ESP         0.0007
     16 H          -0.5373   -1.7156    2.6590 H     1    ESP         0.0014
     16 H           0.1518   -1.3096    2.5372 H     1    ESP         0.0022
     16 H          -1.5714   -1.7713    2.5372 H     1    ESP         0.0005
     16 H          -1.2334   -2.1093    2.5372 H     1    ESP         0.0016
     16 H          -0.7717   -2.2330    2.5372 H     1    ESP         0.0024
     16 H          -0.3100   -2.1093    2.5372 H     1    ESP         0.0029
     16 H           0.0280   -1.7713    2.5372 H     1    ESP         0.0029
     16 H          -1.4467   -2.4787    2.3383 H     1    ESP         0.0025
     16 H          -1.0061   -2.6391    2.3383 H     1    ESP         0.0033
     16 H          -0.5373   -2.6391    2.3383 H     1    ESP         0.0040
     16 H          -0.0967   -2.4787    2.3383 H     1    ESP         0.0045
     16 H           0.2625   -2.1773    2.3383 H     1    ESP         0.0048
     16 H           0.4969   -1.7713    2.3383 H     1    ESP         0.0049
     16 H          -1.7725   -2.7274    2.0683 H     1    ESP         0.0033
     16 H          -1.3529   -2.9449    2.0683 H     1    ESP         0.0041
     16 H          -0.8901   -3.0410    2.0683 H     1    ESP         0.0049
     16 H          -0.4186   -3.0088    2.0683 H     1    ESP         0.0056
     16 H           0.0268   -2.8505    2.0683 H     1    ESP         0.0061
     16 H           0.4129   -2.5779    2.0683 H     1    ESP         0.0065
     16 H           0.7112   -2.2113    2.0683 H     1    ESP         0.0071
     16 H          -1.6691   -3.1731    1.7355 H     1    ESP         0.0049
     16 H          -2.0708   -3.2538    1.3500 H     1    ESP         0.0057
     16 H          -2.0708   -3.2538   -1.3500 H     1    ESP         0.0057
     16 H          -1.6691   -3.1731   -1.7355 H     1    ESP         0.0049
     16 H          -1.7725   -2.7274   -2.0683 H     1    ESP         0.0033
     16 H          -1.3529   -2.9449   -2.0683 H     1    ESP         0.0041
     16 H          -0.8901   -3.0410   -2.0683 H     1    ESP         0.0049
     16 H          -0.4186   -3.0088   -2.0683 H     1    ESP         0.0056
     16 H           0.0268   -2.8505   -2.0683 H     1    ESP         0.0061
     16 H           0.4129   -2.5779   -2.0683 H     1    ESP         0.0065
     16 H           0.7112   -2.2113   -2.0683 H     1    ESP         0.0071
     16 H          -1.4467   -2.4787   -2.3383 H     1    ESP         0.0025
     16 H          -1.0061   -2.6391   -2.3383 H     1    ESP         0.0033
     16 H          -0.5373   -2.6391   -2.3383 H     1    ESP         0.0040
     16 H          -0.0967   -2.4787   -2.3383 H     1    ESP         0.0045
     16 H           0.2625   -2.1773   -2.3383 H     1    ESP         0.0048
     16 H           0.4969   -1.7713   -2.3383 H     1    ESP         0.0049
     16 H           0.1518   -1.3096   -2.5372 H     1    ESP         0.0022
     16 H          -1.5714   -1.7713   -2.5372 H     1    ESP         0.0005
     16 H          -1.2334   -2.1093   -2.5372 H     1    ESP         0.0016
     16 H          -0.7717   -2.2330   -2.5372 H     1    ESP         0.0024
     16 H          -0.3100   -2.1093   -2.5372 H     1    ESP         0.0029
     16 H           0.0280   -1.7713   -2.5372 H     1    ESP         0.0029
     16 H          -0.3028   -1.3096   -2.6590 H     1    ESP         0.0008
     16 H          -0.5373   -0.9035   -2.6590 H     1    ESP        -0.0009
     16 H          -1.0061   -0.9035   -2.6590 H     1    ESP        -0.0016
     16 H          -1.2405   -1.3096   -2.6590 H     1    ESP        -0.0006
     16 H          -1.0061   -1.7156   -2.6590 H     1    ESP         0.0007
     16 H          -0.5373   -1.7156   -2.6590 H     1    ESP         0.0014
     16 H          -0.7717   -1.3096   -2.7000 H     1    ESP        -0.0001
     16 H           0.1200   -0.2552    2.7000 H     1    ESP        -0.0011
     16 H           0.5889   -0.2552    2.6590 H     1    ESP         0.0004
     16 H          -0.1144   -0.6613    2.6590 H     1    ESP        -0.0006
     16 H           0.3544   -0.6613    2.6590 H     1    ESP         0.0010
     16 H           0.5817   -1.0550    2.5372 H     1    ESP         0.0032
     16 H           0.7950   -1.4244    2.3383 H     1    ESP         0.0056
     16 H           0.7950   -1.4244   -2.3383 H     1    ESP         0.0056
     16 H           0.5817   -1.0550   -2.5372 H     1    ESP         0.0032
     16 H           0.5889   -0.2552   -2.6590 H     1    ESP         0.0004
     16 H          -0.1144   -0.6613   -2.6590 H     1    ESP        -0.0006
     16 H           0.3544   -0.6613   -2.6590 H     1    ESP         0.0010
     16 H           0.1200   -0.2552   -2.7000 H     1    ESP        -0.0011
     16 H           1.5912   -0.2386    2.7000 H     1    ESP         0.0018
     16 H           2.0600   -0.2386    2.6590 H     1    ESP         0.0014
     16 H           1.8256    0.1675    2.6590 H     1    ESP        -0.0006
     16 H           1.3567    0.1675    2.6590 H     1    ESP        -0.0002
     16 H           1.1223   -0.2386    2.6590 H     1    ESP         0.0016
     16 H           1.3567   -0.6446    2.6590 H     1    ESP         0.0035
     16 H           1.8256   -0.6446    2.6590 H     1    ESP         0.0035
     16 H           2.5146   -0.2386    2.5372 H     1    ESP         0.0008
     16 H           2.3909    0.2232    2.5372 H     1    ESP        -0.0021
     16 H           2.0529    0.5612    2.5372 H     1    ESP        -0.0037
     16 H           1.5912    0.6849    2.5372 H     1    ESP        -0.0036
     16 H           1.1294    0.5612    2.5372 H     1    ESP        -0.0025
     16 H           1.1294   -1.0383    2.5372 H     1    ESP         0.0049
     16 H           0.9162   -1.4077    2.3383 H     1    ESP         0.0060
     16 H           0.9162   -1.4077   -2.3383 H     1    ESP         0.0060
     16 H           2.5146   -0.2386   -2.5372 H     1    ESP         0.0008
     16 H           2.3909    0.2232   -2.5372 H     1    ESP        -0.0021
     16 H           2.0529    0.5612   -2.5372 H     1    ESP        -0.0037
     16 H           1.5912    0.6849   -2.5372 H     1    ESP        -0.0036
     16 H           1.1294    0.5612   -2.5372 H     1    ESP        -0.0025
     16 H           1.1294   -1.0383   -2.5372 H     1    ESP         0.0049
     16 H           2.0600   -0.2386   -2.6590 H     1    ESP         0.0014
     16 H           1.8256    0.1675   -2.6590 H     1    ESP        -0.0006
     16 H           1.3567    0.1675   -2.6590 H     1    ESP        -0.0002
     16 H           1.1223   -0.2386   -2.6590 H     1    ESP         0.0016
     16 H           1.3567   -0.6446   -2.6590 H     1    ESP         0.0035
     16 H           1.8256   -0.6446   -2.6590 H     1    ESP         0.0035
     16 H           1.5912   -0.2386   -2.7000 H     1    ESP         0.0018
     16 H           1.4238   -1.5599    2.5372 H     1    ESP         0.0056
     16 H           1.5475   -2.0217    2.5372 H     1    ESP         0.0054
     16 H           0.9972   -1.5599    2.3383 H     1    ESP         0.0063
     16 H           1.0787   -2.0217    2.3383 H     1    ESP         0.0062
     16 H           1.3131   -2.4277    2.3383 H     1    ESP         0.0058
     16 H           1.6722   -2.7291    2.3383 H     1    ESP         0.0053
     16 H           0.7554   -2.2514    2.0683 H     1    ESP         0.0072
     16 H           1.0010   -2.6552    2.0683 H     1    ESP         0.0068
     16 H           1.3464   -2.9778    2.0683 H     1    ESP         0.0060
     16 H           1.7661   -3.1952    2.0683 H     1    ESP         0.0053
     16 H           2.2288   -3.2914    2.0683 H     1    ESP         0.0046
     16 H           2.3472   -3.6282    1.7355 H     1    ESP         0.0045
     16 H           2.8075   -3.5764    1.7355 H     1    ESP         0.0039
     16 H           2.8034   -3.8533    1.3500 H     1    ESP         0.0039
     16 H           3.2421   -3.7202    1.3500 H     1    ESP         0.0035
     16 H           3.0416   -4.0002    0.9235 H     1    ESP         0.0037
     16 H           3.4782   -3.8311    0.9235 H     1    ESP         0.0032
     16 H           3.8762   -3.5846    0.9235 H     1    ESP         0.0029
     16 H           4.6500   -0.2304    0.4689 H     1    ESP        -0.0043
     16 H           3.2567   -4.0585    0.4689 H     1    ESP         0.0034
     16 H           3.6767   -3.8627    0.4689 H     1    ESP         0.0030
     16 H           4.0564   -3.5968    0.4689 H     1    ESP         0.0027
     16 H           4.3841   -3.2691    0.4689 H     1    ESP         0.0025
     16 H           5.0472   -1.5599    0.0000 H     1    ESP         0.0008
     16 H           5.0084   -1.1036    0.0000 H     1    ESP        -0.0002
     16 H           4.8930   -0.6604    0.0000 H     1    ESP        -0.0018
     16 H           4.7044   -0.2431    0.0000 H     1    ESP        -0.0043
     16 H           3.3540   -4.0652    0.0000 H     1    ESP         0.0033
     16 H           3.7629   -3.8591    0.0000 H     1    ESP         0.0030
     16 H           4.1311   -3.5867    0.0000 H     1    ESP         0.0027
     16 H           4.4479   -3.2561    0.0000 H     1    ESP         0.0024
     16 H           4.7044   -2.8767    0.0000 H     1    ESP         0.0022
     16 H           4.8930   -2.4594    0.0000 H     1    ESP         0.0019
     16 H           5.0084   -2.0162    0.0000 H     1    ESP         0.0014
     16 H           4.6500   -0.2304   -0.4689 H     1    ESP        -0.0043
     16 H           3.2567   -4.0585   -0.4689 H     1    ESP         0.0034
     16 H           3.6767   -3.8627   -0.4689 H     1    ESP         0.0030
     16 H           4.0564   -3.5968   -0.4689 H     1    ESP         0.0027
     16 H           4.3841   -3.2691   -0.4689 H     1    ESP         0.0025
     16 H           3.0416   -4.0002   -0.9235 H     1    ESP         0.0037
     16 H           3.4782   -3.8311   -0.9235 H     1    ESP         0.0032
     16 H           3.8762   -3.5846   -0.9235 H     1    ESP         0.0029
     16 H           2.8034   -3.8533   -1.3500 H     1    ESP         0.0039
     16 H           3.2421   -3.7202   -1.3500 H     1    ESP         0.0035
     16 H           2.3472   -3.6282   -1.7355 H     1    ESP         0.0045
     16 H           2.8075   -3.5764   -1.7355 H     1    ESP         0.0039
     16 H           0.7554   -2.2514   -2.0683 H     1    ESP         0.0072
     16 H           1.0010   -2.6552   -2.0683 H     1    ESP         0.0068
     16 H           1.3464   -2.9778   -2.0683 H     1    ESP         0.0060
     16 H           1.7661   -3.1952   -2.0683 H     1    ESP         0.0053
     16 H           2.2288   -3.2914   -2.0683 H     1    ESP         0.0046
     16 H           0.9972   -1.5599   -2.3383 H     1    ESP         0.0063
     16 H           1.0787   -2.0217   -2.3383 H     1    ESP         0.0062
     16 H           1.3131   -2.4277   -2.3383 H     1    ESP         0.0058
     16 H           1.6722   -2.7291   -2.3383 H     1    ESP         0.0053
     16 H           1.4238   -1.5599   -2.5372 H     1    ESP         0.0056
     16 H           1.5475   -2.0217   -2.5372 H     1    ESP         0.0054
     16 H           2.2063    0.8204    2.5200 H     1    ESP        -0.0057
     16 H           2.6693    0.8204    2.4771 H     1    ESP        -0.0065
     16 H           2.4378    1.2214    2.4771 H     1    ESP        -0.0080
     16 H           1.9747    1.2214    2.4771 H     1    ESP        -0.0074
     16 H           3.1166    0.8204    2.3498 H     1    ESP        -0.0073
     16 H           2.9946    1.2756    2.3498 H     1    ESP        -0.0090
     16 H           2.6614    1.6088    2.3498 H     1    ESP        -0.0097
     16 H           2.2063    1.7307    2.3498 H     1    ESP        -0.0096
     16 H           1.7511    1.6088    2.3498 H     1    ESP        -0.0088
     16 H           1.4179    1.2756    2.3498 H     1    ESP        -0.0073
     16 H           2.9946    0.3652    2.3498 H     1    ESP        -0.0047
     16 H           3.5329    0.8204    2.1425 H     1    ESP        -0.0080
     16 H           3.4529    1.2741    2.1425 H     1    ESP        -0.0096
     16 H           3.2225    1.6731    2.1425 H     1    ESP        -0.0105
     16 H           2.8696    1.9693    2.1425 H     1    ESP        -0.0110
     16 H           2.4366    2.1268    2.1425 H     1    ESP        -0.0110
     16 H           1.9759    2.1268    2.1425 H     1    ESP        -0.0106
     16 H           1.5430    1.9693    2.1425 H     1    ESP        -0.0099
     16 H           3.4529    0.3667    2.1425 H     1    ESP        -0.0058
     16 H           3.9040    0.8204    1.8623 H     1    ESP        -0.0086
     16 H           3.8410    1.2784    1.8623 H     1    ESP        -0.0101
     16 H           3.6568    1.7025    1.8623 H     1    ESP        -0.0111
     16 H           3.3650    2.0611    1.8623 H     1    ESP        -0.0117
     16 H           2.9873    2.3278    1.8623 H     1    ESP        -0.0119
     16 H           2.5517    2.4826    1.8623 H     1    ESP        -0.0119
     16 H           2.0904    2.5141    1.8623 H     1    ESP        -0.0115
     16 H           1.6377    2.4201    1.8623 H     1    ESP        -0.0110
     16 H           3.8410    0.3624    1.8623 H     1    ESP        -0.0066
     16 H           4.2173    0.8204    1.5186 H     1    ESP        -0.0091
     16 H           4.1631    1.2842    1.5186 H     1    ESP        -0.0105
     16 H           4.0034    1.7229    1.5186 H     1    ESP        -0.0115
     16 H           3.7468    2.1130    1.5186 H     1    ESP        -0.0122
     16 H           3.4071    2.4335    1.5186 H     1    ESP        -0.0125
     16 H           3.0028    2.6669    1.5186 H     1    ESP        -0.0126
     16 H           2.5555    2.8008    1.5186 H     1    ESP        -0.0125
     16 H           2.0893    2.8280    1.5186 H     1    ESP        -0.0121
     16 H           1.6295    2.7469    1.5186 H     1    ESP        -0.0114
     16 H           4.1631    0.3566    1.5186 H     1    ESP        -0.0072
     16 H           4.4621    0.8204    1.1233 H     1    ESP        -0.0095
     16 H           4.4159    1.2745    1.1233 H     1    ESP        -0.0108
     16 H           4.2793    1.7100    1.1233 H     1    ESP        -0.0118
     16 H           4.0577    2.1091    1.1233 H     1    ESP        -0.0124
     16 H           3.7604    2.4554    1.1233 H     1    ESP        -0.0129
     16 H           3.3995    2.7348    1.1233 H     1    ESP        -0.0131
     16 H           2.9897    2.9358    1.1233 H     1    ESP        -0.0131
     16 H           2.5479    3.0502    1.1233 H     1    ESP        -0.0128
     16 H           2.0920    3.0733    1.1233 H     1    ESP        -0.0124
     16 H           4.4159    0.3663    1.1233 H     1    ESP        -0.0078
     16 H           4.6301    0.8204    0.6896 H     1    ESP        -0.0098
     16 H           4.5863    1.2791    0.6896 H     1    ESP        -0.0110
     16 H           4.4564    1.7212    0.6896 H     1    ESP        -0.0120
     16 H           4.2453    2.1308    0.6896 H     1    ESP        -0.0126
     16 H           3.9604    2.4930    0.6896 H     1    ESP        -0.0131
     16 H           3.6122    2.7948    0.6896 H     1    ESP        -0.0133
     16 H           3.2131    3.0252    0.6896 H     1    ESP        -0.0134
     16 H           2.7777    3.1759    0.6896 H     1    ESP        -0.0132
     16 H           2.3216    3.2414    0.6896 H     1    ESP        -0.0128
     16 H           1.8613    3.2195    0.6896 H     1    ESP        -0.0121
     16 H           4.5863    0.3617    0.6896 H     1    ESP        -0.0081
     16 H           4.7155    0.8204    0.2325 H     1    ESP        -0.0099
     16 H           4.6728    1.2815    0.2325 H     1    ESP        -0.0112
     16 H           4.5461    1.7268    0.2325 H     1    ESP        -0.0121
     16 H           4.3397    2.1413    0.2325 H     1    ESP        -0.0127
     16 H           4.0606    2.5109    0.2325 H     1    ESP        -0.0132
     16 H           3.7184    2.8228    0.2325 H     1    ESP        -0.0135
     16 H           3.3247    3.0666    0.2325 H     1    ESP        -0.0135
     16 H           2.8929    3.2339    0.2325 H     1    ESP        -0.0134
     16 H           2.4378    3.3189    0.2325 H     1    ESP        -0.0130
     16 H           1.9747    3.3189    0.2325 H     1    ESP        -0.0123
     16 H           4.6728    0.3593    0.2325 H     1    ESP        -0.0083
     16 H           4.7155    0.8204   -0.2325 H     1    ESP        -0.0099
     16 H           4.6728    1.2815   -0.2325 H     1    ESP        -0.0112
     16 H           4.5461    1.7268   -0.2325 H     1    ESP        -0.0121
     16 H           4.3397    2.1413   -0.2325 H     1    ESP        -0.0127
     16 H           4.0606    2.5109   -0.2325 H     1    ESP        -0.0132
     16 H           3.7184    2.8228   -0.2325 H     1    ESP        -0.0135
     16 H           3.3247    3.0666   -0.2325 H     1    ESP        -0.0135
     16 H           2.8929    3.2339   -0.2325 H     1    ESP        -0.0134
     16 H           2.4378    3.3189   -0.2325 H     1    ESP        -0.0130
     16 H           1.9747    3.3189   -0.2325 H     1    ESP        -0.0123
     16 H           4.6728    0.3593   -0.2325 H     1    ESP        -0.0083
     16 H           4.6301    0.8204   -0.6896 H     1    ESP        -0.0098
     16 H           4.5863    1.2791   -0.6896 H     1    ESP        -0.0110
     16 H           4.4564    1.7212   -0.6896 H     1    ESP        -0.0120
     16 H           4.2453    2.1308   -0.6896 H     1    ESP        -0.0126
     16 H           3.9604    2.4930   -0.6896 H     1    ESP        -0.0131
     16 H           3.6122    2.7948   -0.6896 H     1    ESP        -0.0133
     16 H           3.2131    3.0252   -0.6896 H     1    ESP        -0.0134
     16 H           2.7777    3.1759   -0.6896 H     1    ESP        -0.0132
     16 H           2.3216    3.2414   -0.6896 H     1    ESP        -0.0128
     16 H           1.8613    3.2195   -0.6896 H     1    ESP        -0.0121
     16 H           4.5863    0.3617   -0.6896 H     1    ESP        -0.0081
     16 H           4.4621    0.8204   -1.1233 H     1    ESP        -0.0095
     16 H           4.4159    1.2745   -1.1233 H     1    ESP        -0.0108
     16 H           4.2793    1.7100   -1.1233 H     1    ESP        -0.0118
     16 H           4.0577    2.1091   -1.1233 H     1    ESP        -0.0124
     16 H           3.7604    2.4554   -1.1233 H     1    ESP        -0.0129
     16 H           3.3995    2.7348   -1.1233 H     1    ESP        -0.0131
     16 H           2.9897    2.9358   -1.1233 H     1    ESP        -0.0131
     16 H           2.5479    3.0502   -1.1233 H     1    ESP        -0.0128
     16 H           2.0920    3.0733   -1.1233 H     1    ESP        -0.0124
     16 H           4.4159    0.3663   -1.1233 H     1    ESP        -0.0078
     16 H           4.2173    0.8204   -1.5186 H     1    ESP        -0.0091
     16 H           4.1631    1.2842   -1.5186 H     1    ESP        -0.0105
     16 H           4.0034    1.7229   -1.5186 H     1    ESP        -0.0115
     16 H           3.7468    2.1130   -1.5186 H     1    ESP        -0.0122
     16 H           3.4071    2.4335   -1.5186 H     1    ESP        -0.0125
     16 H           3.0028    2.6669   -1.5186 H     1    ESP        -0.0126
     16 H           2.5555    2.8008   -1.5186 H     1    ESP        -0.0125
     16 H           2.0893    2.8280   -1.5186 H     1    ESP        -0.0121
     16 H           1.6295    2.7469   -1.5186 H     1    ESP        -0.0114
     16 H           4.1631    0.3566   -1.5186 H     1    ESP        -0.0072
     16 H           3.9040    0.8204   -1.8623 H     1    ESP        -0.0086
     16 H           3.8410    1.2784   -1.8623 H     1    ESP        -0.0101
     16 H           3.6568    1.7025   -1.8623 H     1    ESP        -0.0111
     16 H           3.3650    2.0611   -1.8623 H     1    ESP        -0.0117
     16 H           2.9873    2.3278   -1.8623 H     1    ESP        -0.0119
     16 H           2.5517    2.4826   -1.8623 H     1    ESP        -0.0119
     16 H           2.0904    2.5141   -1.8623 H     1    ESP        -0.0115
     16 H           1.6377    2.4201   -1.8623 H     1    ESP        -0.0110
     16 H           3.8410    0.3624   -1.8623 H     1    ESP        -0.0066
     16 H           3.5329    0.8204   -2.1425 H     1    ESP        -0.0080
     16 H           3.4529    1.2741   -2.1425 H     1    ESP        -0.0096
     16 H           3.2225    1.6731   -2.1425 H     1    ESP        -0.0105
     16 H           2.8696    1.9693   -2.1425 H     1    ESP        -0.0110
     16 H           2.4366    2.1268   -2.1425 H     1    ESP        -0.0110
     16 H           1.9759    2.1268   -2.1425 H     1    ESP        -0.0106
     16 H           1.5430    1.9693   -2.1425 H     1    ESP        -0.0099
     16 H           3.4529    0.3667   -2.1425 H     1    ESP        -0.0058
     16 H           3.1166    0.8204   -2.3498 H     1    ESP        -0.0073
     16 H           2.9946    1.2756   -2.3498 H     1    ESP        -0.0090
     16 H           2.6614    1.6088   -2.3498 H     1    ESP        -0.0097
     16 H           2.2063    1.7307   -2.3498 H     1    ESP        -0.0096
     16 H           1.7511    1.6088   -2.3498 H     1    ESP        -0.0088
     16 H           1.4179    1.2756   -2.3498 H     1    ESP        -0.0073
     16 H           2.9946    0.3652   -2.3498 H     1    ESP        -0.0047
     16 H           2.6693    0.8204   -2.4771 H     1    ESP        -0.0065
     16 H           2.4378    1.2214   -2.4771 H     1    ESP        -0.0080
     16 H           1.9747    1.2214   -2.4771 H     1    ESP        -0.0074
     16 H           2.2063    0.8204   -2.5200 H     1    ESP        -0.0057
     16 H          -3.6103    1.8108    1.9733 H     1    ESP         0.0037
     16 H          -3.9319    1.4893    1.9733 H     1    ESP         0.0041
     16 H          -4.0496    1.0500    1.9733 H     1    ESP         0.0042
     16 H          -3.5185    2.2711    1.7475 H     1    ESP         0.0038
     16 H          -3.9361    2.0632    1.7475 H     1    ESP         0.0044
     16 H          -4.2505    1.7184    1.7475 H     1    ESP         0.0047
     16 H          -4.4190    1.2833    1.7475 H     1    ESP         0.0048
     16 H          -4.4190    0.8167    1.7475 H     1    ESP         0.0048
     16 H          -3.3995    2.6388    1.4453 H     1    ESP         0.0040
     16 H          -3.8378    2.5101    1.4453 H     1    ESP         0.0045
     16 H          -4.2222    2.2631    1.4453 H     1    ESP         0.0048
     16 H          -4.5214    1.9178    1.4453 H     1    ESP         0.0051
     16 H          -4.7112    1.5022    1.4453 H     1    ESP         0.0052
     16 H          -4.7762    1.0500    1.4453 H     1    ESP         0.0053
     16 H          -4.7112    0.5978    1.4453 H     1    ESP         0.0054
     16 H          -4.5214    0.1822    1.4453 H     1    ESP         0.0054
     16 H          -3.5215    2.8875    1.0800 H     1    ESP         0.0045
     16 H          -3.9675    2.7426    1.0800 H     1    ESP         0.0048
     16 H          -4.3634    2.4913    1.0800 H     1    ESP         0.0051
     16 H          -4.6844    2.1495    1.0800 H     1    ESP         0.0053
     16 H          -4.9103    1.7386    1.0800 H     1    ESP         0.0055
     16 H          -5.0269    1.2844    1.0800 H     1    ESP         0.0056
     16 H          -5.0269    0.8155    1.0800 H     1    ESP         0.0057
     16 H          -4.9103    0.3614    1.0800 H     1    ESP         0.0058
     16 H          -4.6844   -0.0495    1.0800 H     1    ESP         0.0061
     16 H          -3.6281    3.0528    0.6675 H     1    ESP         0.0048
     16 H          -4.0623    2.9008    0.6675 H     1    ESP         0.0050
     16 H          -4.4518    2.6561    0.6675 H     1    ESP         0.0053
     16 H          -4.7771    2.3308    0.6675 H     1    ESP         0.0055
     16 H          -5.0219    1.9413    0.6675 H     1    ESP         0.0056
     16 H          -5.1738    1.5071    0.6675 H     1    ESP         0.0057
     16 H          -5.2253    1.0500    0.6675 H     1    ESP         0.0058
     16 H          -5.1738    0.5929    0.6675 H     1    ESP         0.0060
     16 H          -5.0219    0.1587    0.6675 H     1    ESP         0.0062
     16 H          -4.7771   -0.2308    0.6675 H     1    ESP         0.0067
     16 H          -3.5185    3.1699    0.2258 H     1    ESP         0.0049
     16 H          -3.9661    3.0456    0.2258 H     1    ESP         0.0051
     16 H          -4.3765    2.8280    0.2258 H     1    ESP         0.0053
     16 H          -4.7306    2.5273    0.2258 H     1    ESP         0.0055
     16 H          -5.0117    2.1575    0.2258 H     1    ESP         0.0056
     16 H          -5.2067    1.7359    0.2258 H     1    ESP         0.0058
     16 H          -5.3066    1.2823    0.2258 H     1    ESP         0.0059
     16 H          -5.3066    0.8177    0.2258 H     1    ESP         0.0060
     16 H          -5.2067    0.3641    0.2258 H     1    ESP         0.0062
     16 H          -5.0117   -0.0575    0.2258 H     1    ESP         0.0066
     16 H          -3.5185    3.1699   -0.2258 H     1    ESP         0.0049
     16 H          -3.9661    3.0456   -0.2258 H     1    ESP         0.0051
     16 H          -4.3765    2.8280   -0.2258 H     1    ESP         0.0053
     16 H          -4.7306    2.5273   -0.2258 H     1    ESP         0.0055
     16 H          -5.0117    2.1575   -0.2258 H     1    ESP         0.0056
     16 H          -5.2067    1.7359   -0.2258 H     1    ESP         0.0058
     16 H          -5.3066    1.2823   -0.2258 H     1    ESP         0.0059
     16 H          -5.3066    0.8177   -0.2258 H     1    ESP         0.0060
     16 H          -5.2067    0.3641   -0.2258 H     1    ESP         0.0062
     16 H          -5.0117   -0.0575   -0.2258 H     1    ESP         0.0066
     16 H          -3.6281    3.0528   -0.6675 H     1    ESP         0.0048
     16 H          -4.0623    2.9008   -0.6675 H     1    ESP         0.0050
     16 H          -4.4518    2.6561   -0.6675 H     1    ESP         0.0053
     16 H          -4.7771    2.3308   -0.6675 H     1    ESP         0.0055
     16 H          -5.0219    1.9413   -0.6675 H     1    ESP         0.0056
     16 H          -5.1738    1.5071   -0.6675 H     1    ESP         0.0057
     16 H          -5.2253    1.0500   -0.6675 H     1    ESP         0.0058
     16 H          -5.1738    0.5929   -0.6675 H     1    ESP         0.0060
     16 H          -5.0219    0.1587   -0.6675 H     1    ESP         0.0062
     16 H          -4.7771   -0.2308   -0.6675 H     1    ESP         0.0067
     16 H          -3.5215    2.8875   -1.0800 H     1    ESP         0.0045
     16 H          -3.9675    2.7426   -1.0800 H     1    ESP         0.0048
     16 H          -4.3634    2.4913   -1.0800 H     1    ESP         0.0051
     16 H          -4.6844    2.1495   -1.0800 H     1    ESP         0.0053
     16 H          -4.9103    1.7386   -1.0800 H     1    ESP         0.0055
     16 H          -5.0269    1.2844   -1.0800 H     1    ESP         0.0056
     16 H          -5.0269    0.8155   -1.0800 H     1    ESP         0.0057
     16 H          -4.9103    0.3614   -1.0800 H     1    ESP         0.0058
     16 H          -4.6844   -0.0495   -1.0800 H     1    ESP         0.0061
     16 H          -3.3995    2.6388   -1.4453 H     1    ESP         0.0040
     16 H          -3.8378    2.5101   -1.4453 H     1    ESP         0.0045
     16 H          -4.2222    2.2631   -1.4453 H     1    ESP         0.0048
     16 H          -4.5214    1.9178   -1.4453 H     1    ESP         0.0051
     16 H          -4.7112    1.5022   -1.4453 H     1    ESP         0.0052
     16 H          -4.7762    1.0500   -1.4453 H     1    ESP         0.0053
     16 H          -4.7112    0.5978   -1.4453 H     1    ESP         0.0054
     16 H          -4.5214    0.1822   -1.4453 H     1    ESP         0.0054
     16 H          -3.5185    2.2711   -1.7475 H     1    ESP         0.0038
     16 H          -3.9361    2.0632   -1.7475 H     1    ESP         0.0044
     16 H          -4.2505    1.7184   -1.7475 H     1    ESP         0.0047
     16 H          -4.4190    1.2833   -1.7475 H     1    ESP         0.0048
     16 H          -4.4190    0.8167   -1.7475 H     1    ESP         0.0048
     16 H          -3.6103    1.8108   -1.9733 H     1    ESP         0.0037
     16 H          -3.9319    1.4893   -1.9733 H     1    ESP         0.0041
     16 H          -4.0496    1.0500   -1.9733 H     1    ESP         0.0042
     16 H          -3.8517   -1.5752    1.9733 H     1    ESP         0.0038
     16 H          -3.7340   -2.0145    1.9733 H     1    ESP         0.0040
     16 H          -3.4125   -2.3361    1.9733 H     1    ESP         0.0040
     16 H          -4.2212   -1.3419    1.7475 H     1    ESP         0.0043
     16 H          -4.2212   -1.8085    1.7475 H     1    ESP         0.0044
     16 H          -4.0526   -2.2436    1.7475 H     1    ESP         0.0045
     16 H          -3.7383   -2.5884    1.7475 H     1    ESP         0.0046
     16 H          -3.3206   -2.7964    1.7475 H     1    ESP         0.0046
     16 H          -2.8560   -2.8394    1.7475 H     1    ESP         0.0045
     16 H          -4.5133   -1.1230    1.4453 H     1    ESP         0.0049
     16 H          -4.5784   -1.5752    1.4453 H     1    ESP         0.0048
     16 H          -4.5133   -2.0275    1.4453 H     1    ESP         0.0048
     16 H          -4.3236   -2.4431    1.4453 H     1    ESP         0.0049
     16 H          -4.0244   -2.7884    1.4453 H     1    ESP         0.0049
     16 H          -3.6400   -3.0354    1.4453 H     1    ESP         0.0050
     16 H          -3.2016   -3.1641    1.4453 H     1    ESP         0.0050
     16 H          -2.7447   -3.1641    1.4453 H     1    ESP         0.0052
     16 H          -4.7124   -0.8866    1.0800 H     1    ESP         0.0055
     16 H          -4.8290   -1.3408    1.0800 H     1    ESP         0.0052
     16 H          -4.8290   -1.8097    1.0800 H     1    ESP         0.0051
     16 H          -4.7124   -2.2638    1.0800 H     1    ESP         0.0051
     16 H          -4.4865   -2.6747    1.0800 H     1    ESP         0.0051
     16 H          -4.1656   -3.0166    1.0800 H     1    ESP         0.0052
     16 H          -3.7696   -3.2678    1.0800 H     1    ESP         0.0052
     16 H          -3.3237   -3.4127    1.0800 H     1    ESP         0.0054
     16 H          -2.8557   -3.4422    1.0800 H     1    ESP         0.0056
     16 H          -4.8240   -0.6839    0.6675 H     1    ESP         0.0062
     16 H          -4.9760   -1.1181    0.6675 H     1    ESP         0.0056
     16 H          -5.0275   -1.5752    0.6675 H     1    ESP         0.0054
     16 H          -4.9760   -2.0323    0.6675 H     1    ESP         0.0053
     16 H          -4.8240   -2.4665    0.6675 H     1    ESP         0.0052
     16 H          -4.5793   -2.8561    0.6675 H     1    ESP         0.0053
     16 H          -4.2540   -3.1813    0.6675 H     1    ESP         0.0053
     16 H          -3.8645   -3.4261    0.6675 H     1    ESP         0.0054
     16 H          -3.4303   -3.5780    0.6675 H     1    ESP         0.0055
     16 H          -2.9732   -3.6295    0.6675 H     1    ESP         0.0058
     16 H          -2.5161   -3.5780    0.6675 H     1    ESP         0.0065
     16 H          -4.8138   -0.4677    0.2258 H     1    ESP         0.0071
     16 H          -5.0089   -0.8893    0.2258 H     1    ESP         0.0060
     16 H          -5.1088   -1.3430    0.2258 H     1    ESP         0.0056
     16 H          -5.1088   -1.8075    0.2258 H     1    ESP         0.0054
     16 H          -5.0089   -2.2611    0.2258 H     1    ESP         0.0053
     16 H          -4.8138   -2.6827    0.2258 H     1    ESP         0.0053
     16 H          -4.5327   -3.0525    0.2258 H     1    ESP         0.0053
     16 H          -4.1787   -3.3532    0.2258 H     1    ESP         0.0054
     16 H          -3.7683   -3.5708    0.2258 H     1    ESP         0.0055
     16 H          -3.3207   -3.6951    0.2258 H     1    ESP         0.0057
     16 H          -2.8569   -3.7202    0.2258 H     1    ESP         0.0061
     16 H          -2.3985   -3.6451    0.2258 H     1    ESP         0.0070
     16 H          -4.8138   -0.4677   -0.2258 H     1    ESP         0.0071
     16 H          -5.0089   -0.8893   -0.2258 H     1    ESP         0.0060
     16 H          -5.1088   -1.3430   -0.2258 H     1    ESP         0.0056
     16 H          -5.1088   -1.8075   -0.2258 H     1    ESP         0.0054
     16 H          -5.0089   -2.2611   -0.2258 H     1    ESP         0.0053
     16 H          -4.8138   -2.6827   -0.2258 H     1    ESP         0.0053
     16 H          -4.5327   -3.0525   -0.2258 H     1    ESP         0.0053
     16 H          -4.1787   -3.3532   -0.2258 H     1    ESP         0.0054
     16 H          -3.7683   -3.5708   -0.2258 H     1    ESP         0.0055
     16 H          -3.3207   -3.6951   -0.2258 H     1    ESP         0.0057
     16 H          -2.8569   -3.7202   -0.2258 H     1    ESP         0.0061
     16 H          -2.3985   -3.6451   -0.2258 H     1    ESP         0.0070
     16 H          -4.8240   -0.6839   -0.6675 H     1    ESP         0.0062
     16 H          -4.9760   -1.1181   -0.6675 H     1    ESP         0.0056
     16 H          -5.0275   -1.5752   -0.6675 H     1    ESP         0.0054
     16 H          -4.9760   -2.0323   -0.6675 H     1    ESP         0.0053
     16 H          -4.8240   -2.4665   -0.6675 H     1    ESP         0.0052
     16 H          -4.5793   -2.8561   -0.6675 H     1    ESP         0.0053
     16 H          -4.2540   -3.1813   -0.6675 H     1    ESP         0.0053
     16 H          -3.8645   -3.4261   -0.6675 H     1    ESP         0.0054
     16 H          -3.4303   -3.5780   -0.6675 H     1    ESP         0.0055
     16 H          -2.9732   -3.6295   -0.6675 H     1    ESP         0.0058
     16 H          -2.5161   -3.5780   -0.6675 H     1    ESP         0.0065
     16 H          -4.7124   -0.8866   -1.0800 H     1    ESP         0.0055
     16 H          -4.8290   -1.3408   -1.0800 H     1    ESP         0.0052
     16 H          -4.8290   -1.8097   -1.0800 H     1    ESP         0.0051
     16 H          -4.7124   -2.2638   -1.0800 H     1    ESP         0.0051
     16 H          -4.4865   -2.6747   -1.0800 H     1    ESP         0.0051
     16 H          -4.1656   -3.0166   -1.0800 H     1    ESP         0.0052
     16 H          -3.7696   -3.2678   -1.0800 H     1    ESP         0.0052
     16 H          -3.3237   -3.4127   -1.0800 H     1    ESP         0.0054
     16 H          -2.8557   -3.4422   -1.0800 H     1    ESP         0.0056
     16 H          -4.5133   -1.1230   -1.4453 H     1    ESP         0.0049
     16 H          -4.5784   -1.5752   -1.4453 H     1    ESP         0.0048
     16 H          -4.5133   -2.0275   -1.4453 H     1    ESP         0.0048
     16 H          -4.3236   -2.4431   -1.4453 H     1    ESP         0.0049
     16 H          -4.0244   -2.7884   -1.4453 H     1    ESP         0.0049
     16 H          -3.6400   -3.0354   -1.4453 H     1    ESP         0.0050
     16 H          -3.2016   -3.1641   -1.4453 H     1    ESP         0.0050
     16 H          -2.7447   -3.1641   -1.4453 H     1    ESP         0.0052
     16 H          -4.2212   -1.3419   -1.7475 H     1    ESP         0.0043
     16 H          -4.2212   -1.8085   -1.7475 H     1    ESP         0.0044
     16 H          -4.0526   -2.2436   -1.7475 H     1    ESP         0.0045
     16 H          -3.7383   -2.5884   -1.7475 H     1    ESP         0.0046
     16 H          -3.3206   -2.7964   -1.7475 H     1    ESP         0.0046
     16 H          -2.8560   -2.8394   -1.7475 H     1    ESP         0.0045
     16 H          -3.8517   -1.5752   -1.9733 H     1    ESP         0.0038
     16 H          -3.7340   -2.0145   -1.9733 H     1    ESP         0.0040
     16 H          -3.4125   -2.3361   -1.9733 H     1    ESP         0.0040
     16 H          -0.4660   -3.2278    1.9733 H     1    ESP         0.0058
     16 H          -0.0267   -3.1101    1.9733 H     1    ESP         0.0064
     16 H          -1.2311   -3.3625    1.7475 H     1    ESP         0.0056
     16 H          -0.8134   -3.5704    1.7475 H     1    ESP         0.0059
     16 H          -0.3488   -3.6135    1.7475 H     1    ESP         0.0063
     16 H           0.1000   -3.4858    1.7475 H     1    ESP         0.0068
     16 H           0.4723   -3.2046    1.7475 H     1    ESP         0.0075
     16 H          -1.5171   -3.5624    1.4453 H     1    ESP         0.0059
     16 H          -1.1328   -3.8094    1.4453 H     1    ESP         0.0061
     16 H          -0.6944   -3.9381    1.4453 H     1    ESP         0.0063
     16 H          -0.2375   -3.9381    1.4453 H     1    ESP         0.0067
     16 H           0.2009   -3.8094    1.4453 H     1    ESP         0.0072
     16 H          -1.6583   -3.7906    1.0800 H     1    ESP         0.0063
     16 H          -1.2624   -4.0419    1.0800 H     1    ESP         0.0063
     16 H          -0.8165   -4.1868    1.0800 H     1    ESP         0.0065
     16 H          -0.3485   -4.2162    1.0800 H     1    ESP         0.0067
     16 H           0.1121   -4.1283    1.0800 H     1    ESP         0.0072
     16 H           0.5364   -3.9287    1.0800 H     1    ESP         0.0078
     16 H          -2.0721   -3.6301    0.6675 H     1    ESP         0.0070
     16 H          -1.7468   -3.9554    0.6675 H     1    ESP         0.0066
     16 H          -1.3573   -4.2001    0.6675 H     1    ESP         0.0065
     16 H          -0.9231   -4.3521    0.6675 H     1    ESP         0.0066
     16 H          -0.4660   -4.4036    0.6675 H     1    ESP         0.0068
     16 H          -0.0088   -4.3521    0.6675 H     1    ESP         0.0071
     16 H           0.4254   -4.2001    0.6675 H     1    ESP         0.0076
     16 H          -2.0255   -3.8266    0.2258 H     1    ESP         0.0070
     16 H          -1.6715   -4.1273    0.2258 H     1    ESP         0.0066
     16 H          -1.2611   -4.3449    0.2258 H     1    ESP         0.0066
     16 H          -0.8135   -4.4692    0.2258 H     1    ESP         0.0067
     16 H          -0.3497   -4.4943    0.2258 H     1    ESP         0.0069
     16 H           0.1087   -4.4192    0.2258 H     1    ESP         0.0073
     16 H          -2.0255   -3.8266   -0.2258 H     1    ESP         0.0070
     16 H          -1.6715   -4.1273   -0.2258 H     1    ESP         0.0066
     16 H          -1.2611   -4.3449   -0.2258 H     1    ESP         0.0066
     16 H          -0.8135   -4.4692   -0.2258 H     1    ESP         0.0067
     16 H          -0.3497   -4.4943   -0.2258 H     1    ESP         0.0069
     16 H           0.1087   -4.4192   -0.2258 H     1    ESP         0.0073
     16 H          -2.0721   -3.6301   -0.6675 H     1    ESP         0.0070
     16 H          -1.7468   -3.9554   -0.6675 H     1    ESP         0.0066
     16 H          -1.3573   -4.2001   -0.6675 H     1    ESP         0.0065
     16 H          -0.9231   -4.3521   -0.6675 H     1    ESP         0.0066
     16 H          -0.4660   -4.4036   -0.6675 H     1    ESP         0.0068
     16 H          -0.0088   -4.3521   -0.6675 H     1    ESP         0.0071
     16 H           0.4254   -4.2001   -0.6675 H     1    ESP         0.0076
     16 H          -1.6583   -3.7906   -1.0800 H     1    ESP         0.0063
     16 H          -1.2624   -4.0419   -1.0800 H     1    ESP         0.0063
     16 H          -0.8165   -4.1868   -1.0800 H     1    ESP         0.0065
     16 H          -0.3485   -4.2162   -1.0800 H     1    ESP         0.0067
     16 H           0.1121   -4.1283   -1.0800 H     1    ESP         0.0072
     16 H           0.5364   -3.9287   -1.0800 H     1    ESP         0.0078
     16 H          -1.5171   -3.5624   -1.4453 H     1    ESP         0.0059
     16 H          -1.1328   -3.8094   -1.4453 H     1    ESP         0.0061
     16 H          -0.6944   -3.9381   -1.4453 H     1    ESP         0.0063
     16 H          -0.2375   -3.9381   -1.4453 H     1    ESP         0.0067
     16 H           0.2009   -3.8094   -1.4453 H     1    ESP         0.0072
     16 H          -1.2311   -3.3625   -1.7475 H     1    ESP         0.0056
     16 H          -0.8134   -3.5704   -1.7475 H     1    ESP         0.0059
     16 H          -0.3488   -3.6135   -1.7475 H     1    ESP         0.0063
     16 H           0.1000   -3.4858   -1.7475 H     1    ESP         0.0068
     16 H           0.4723   -3.2046   -1.7475 H     1    ESP         0.0075
     16 H          -0.4660   -3.2278   -1.9733 H     1    ESP         0.0058
     16 H          -0.0267   -3.1101   -1.9733 H     1    ESP         0.0064
     16 H           0.9511   -2.8869    1.9733 H     1    ESP         0.0068
     16 H           1.2727   -3.2085    1.9733 H     1    ESP         0.0060
     16 H           1.7119   -3.3262    1.9733 H     1    ESP         0.0053
     16 H           0.6325   -3.1160    1.7475 H     1    ESP         0.0077
     16 H           0.9468   -3.4608    1.7475 H     1    ESP         0.0065
     16 H           1.3645   -3.6688    1.7475 H     1    ESP         0.0055
     16 H           1.8291   -3.7118    1.7475 H     1    ESP         0.0049
     16 H           0.6607   -3.6607    1.4453 H     1    ESP         0.0074
     16 H           1.0451   -3.9077    1.4453 H     1    ESP         0.0060
     16 H           1.4835   -4.0365    1.4453 H     1    ESP         0.0051
     16 H           1.9404   -4.0365    1.4453 H     1    ESP         0.0046
     16 H           2.3787   -3.9077    1.4453 H     1    ESP         0.0043
     16 H           0.9155   -4.1402    1.0800 H     1    ESP         0.0063
     16 H           1.3614   -4.2851    1.0800 H     1    ESP         0.0052
     16 H           1.8294   -4.3145    1.0800 H     1    ESP         0.0046
     16 H           2.2900   -4.2267    1.0800 H     1    ESP         0.0042
     16 H           2.7143   -4.0270    1.0800 H     1    ESP         0.0040
     16 H           0.8206   -4.2985    0.6675 H     1    ESP         0.0066
     16 H           1.2548   -4.4504    0.6675 H     1    ESP         0.0054
     16 H           1.7119   -4.5019    0.6675 H     1    ESP         0.0047
     16 H           2.1690   -4.4504    0.6675 H     1    ESP         0.0042
     16 H           2.6032   -4.2985    0.6675 H     1    ESP         0.0040
     16 H           0.9168   -4.4432    0.2258 H     1    ESP         0.0062
     16 H           1.3644   -4.5675    0.2258 H     1    ESP         0.0052
     16 H           1.8282   -4.5926    0.2258 H     1    ESP         0.0045
     16 H           2.2866   -4.5175    0.2258 H     1    ESP         0.0041
     16 H           2.7181   -4.3455    0.2258 H     1    ESP         0.0038
     16 H           0.9168   -4.4432   -0.2258 H     1    ESP         0.0062
     16 H           1.3644   -4.5675   -0.2258 H     1    ESP         0.0052
     16 H           1.8282   -4.5926   -0.2258 H     1    ESP         0.0045
     16 H           2.2866   -4.5175   -0.2258 H     1    ESP         0.0041
     16 H           2.7181   -4.3455   -0.2258 H     1    ESP         0.0038
     16 H           0.8206   -4.2985   -0.6675 H     1    ESP         0.0066
     16 H           1.2548   -4.4504   -0.6675 H     1    ESP         0.0054
     16 H           1.7119   -4.5019   -0.6675 H     1    ESP         0.0047
     16 H           2.1690   -4.4504   -0.6675 H     1    ESP         0.0042
     16 H           2.6032   -4.2985   -0.6675 H     1    ESP         0.0040
     16 H           0.9155   -4.1402   -1.0800 H     1    ESP         0.0063
     16 H           1.3614   -4.2851   -1.0800 H     1    ESP         0.0052
     16 H           1.8294   -4.3145   -1.0800 H     1    ESP         0.0046
     16 H           2.2900   -4.2267   -1.0800 H     1    ESP         0.0042
     16 H           2.7143   -4.0270   -1.0800 H     1    ESP         0.0040
     16 H           0.6607   -3.6607   -1.4453 H     1    ESP         0.0074
     16 H           1.0451   -3.9077   -1.4453 H     1    ESP         0.0060
     16 H           1.4835   -4.0365   -1.4453 H     1    ESP         0.0051
     16 H           1.9404   -4.0365   -1.4453 H     1    ESP         0.0046
     16 H           2.3787   -3.9077   -1.4453 H     1    ESP         0.0043
     16 H           0.6325   -3.1160   -1.7475 H     1    ESP         0.0077
     16 H           0.9468   -3.4608   -1.7475 H     1    ESP         0.0065
     16 H           1.3645   -3.6688   -1.7475 H     1    ESP         0.0055
     16 H           1.8291   -3.7118   -1.7475 H     1    ESP         0.0049
     16 H           0.9511   -2.8869   -1.9733 H     1    ESP         0.0068
     16 H           1.2727   -3.2085   -1.9733 H     1    ESP         0.0060
     16 H           1.7119   -3.3262   -1.9733 H     1    ESP         0.0053
     16 H           5.0506   -1.5849   -0.2140 H     1    ESP         0.0008
     16 H           4.9991   -2.0420   -0.2140 H     1    ESP         0.0015
     16 H           5.1445   -1.5849   -0.6557 H     1    ESP         0.0007
     16 H           5.0942   -1.1231   -0.6557 H     1    ESP        -0.0002
     16 H           4.9459   -0.6829   -0.6557 H     1    ESP        -0.0015
     16 H           4.7064   -0.2849   -0.6557 H     1    ESP        -0.0036
     16 H           4.3870   -3.2221   -0.6557 H     1    ESP         0.0025
     16 H           4.7064   -2.8849   -0.6557 H     1    ESP         0.0021
     16 H           4.9459   -2.4869   -0.6557 H     1    ESP         0.0017
     16 H           5.0942   -2.0467   -0.6557 H     1    ESP         0.0013
     16 H           5.1445   -1.5849   -1.1073 H     1    ESP         0.0007
     16 H           5.0942   -1.1231   -1.1073 H     1    ESP        -0.0001
     16 H           4.9459   -0.6829   -1.1073 H     1    ESP        -0.0012
     16 H           4.7064   -0.2849   -1.1073 H     1    ESP        -0.0030
     16 H           4.3870    0.0524   -1.1073 H     1    ESP        -0.0059
     16 H           4.0025   -3.4828   -1.1073 H     1    ESP         0.0028
     16 H           4.3870   -3.2221   -1.1073 H     1    ESP         0.0024
     16 H           4.7064   -2.8849   -1.1073 H     1    ESP         0.0020
     16 H           4.9459   -2.4869   -1.1073 H     1    ESP         0.0016
     16 H           5.0942   -2.0467   -1.1073 H     1    ESP         0.0012
     16 H           5.0506   -1.5849   -1.5490 H     1    ESP         0.0007
     16 H           4.9991   -1.1278   -1.5490 H     1    ESP         0.0000
     16 H           4.8471   -0.6936   -1.5490 H     1    ESP        -0.0009
     16 H           4.6024   -0.3041   -1.5490 H     1    ESP        -0.0023
     16 H           4.2771    0.0212   -1.5490 H     1    ESP        -0.0045
     16 H           3.4534   -3.5877   -1.5490 H     1    ESP         0.0032
     16 H           3.8876   -3.4357   -1.5490 H     1    ESP         0.0027
     16 H           4.2771   -3.1910   -1.5490 H     1    ESP         0.0023
     16 H           4.6024   -2.8657   -1.5490 H     1    ESP         0.0020
     16 H           4.8471   -2.4762   -1.5490 H     1    ESP         0.0016
     16 H           4.9991   -2.0420   -1.5490 H     1    ESP         0.0012
     16 H           4.8669   -1.5849   -1.9615 H     1    ESP         0.0008
     16 H           4.8081   -1.1197   -1.9615 H     1    ESP         0.0002
     16 H           4.6355   -0.6837   -1.9615 H     1    ESP        -0.0007
     16 H           4.3599   -0.3044   -1.9615 H     1    ESP        -0.0019
     16 H           3.9986   -0.0055   -1.9615 H     1    ESP        -0.0035
     16 H           2.6458   -3.4224   -1.9615 H     1    ESP         0.0040
     16 H           3.1137   -3.4518   -1.9615 H     1    ESP         0.0034
     16 H           3.5743   -3.3639   -1.9615 H     1    ESP         0.0028
     16 H           3.9986   -3.1643   -1.9615 H     1    ESP         0.0024
     16 H           4.3599   -2.8654   -1.9615 H     1    ESP         0.0020
     16 H           4.6355   -2.4861   -1.9615 H     1    ESP         0.0017
     16 H           4.8081   -2.0501   -1.9615 H     1    ESP         0.0013
     16 H           4.6015   -1.5849   -2.3268 H     1    ESP         0.0010
     16 H           4.5365   -1.1327   -2.3268 H     1    ESP         0.0004
     16 H           4.3467   -0.7171   -2.3268 H     1    ESP        -0.0003
     16 H           4.0475   -0.3718   -2.3268 H     1    ESP        -0.0012
     16 H           3.6631   -0.1248   -2.3268 H     1    ESP        -0.0020
     16 H           3.2247    0.0040   -2.3268 H     1    ESP        -0.0025
     16 H           2.3295   -3.0450   -2.3268 H     1    ESP         0.0042
     16 H           2.7678   -3.1737   -2.3268 H     1    ESP         0.0036
     16 H           3.2247   -3.1737   -2.3268 H     1    ESP         0.0030
     16 H           3.6631   -3.0450   -2.3268 H     1    ESP         0.0026
     16 H           4.0475   -2.7980   -2.3268 H     1    ESP         0.0022
     16 H           4.3467   -2.4527   -2.3268 H     1    ESP         0.0018
     16 H           4.5365   -2.0371   -2.3268 H     1    ESP         0.0014
     16 H           4.2659   -1.5849   -2.6290 H     1    ESP         0.0012
     16 H           4.1802   -1.1262   -2.6290 H     1    ESP         0.0007
     16 H           3.9345   -0.7296   -2.6290 H     1    ESP         0.0001
     16 H           3.5622   -0.4484   -2.6290 H     1    ESP        -0.0003
     16 H           3.1134   -0.3207   -2.6290 H     1    ESP        -0.0002
     16 H           2.6488   -0.3637   -2.6290 H     1    ESP         0.0009
     16 H           2.2312   -0.5717   -2.6290 H     1    ESP         0.0028
     16 H           1.9168   -0.9165   -2.6290 H     1    ESP         0.0044
     16 H           1.7483   -1.3516   -2.6290 H     1    ESP         0.0051
     16 H           1.7483   -1.8182   -2.6290 H     1    ESP         0.0050
     16 H           1.9168   -2.2533   -2.6290 H     1    ESP         0.0046
     16 H           2.2312   -2.5981   -2.6290 H     1    ESP         0.0041
     16 H           2.6488   -2.8060   -2.6290 H     1    ESP         0.0035
     16 H           3.1134   -2.8491   -2.6290 H     1    ESP         0.0029
     16 H           3.5622   -2.7214   -2.6290 H     1    ESP         0.0024
     16 H           3.9345   -2.4402   -2.6290 H     1    ESP         0.0020
     16 H           4.1802   -2.0435   -2.6290 H     1    ESP         0.0016
     16 H           3.8748   -1.5849   -2.8547 H     1    ESP         0.0014
     16 H           3.7571   -1.1456   -2.8547 H     1    ESP         0.0010
     16 H           3.4356   -0.8240   -2.8547 H     1    ESP         0.0008
     16 H           2.9963   -0.7063   -2.8547 H     1    ESP         0.0011
     16 H           2.5570   -0.8240   -2.8547 H     1    ESP         0.0022
     16 H           2.2354   -1.1456   -2.8547 H     1    ESP         0.0033
     16 H           2.1177   -1.5849   -2.8547 H     1    ESP         0.0038
     16 H           2.2354   -2.0242   -2.8547 H     1    ESP         0.0037
     16 H           2.5570   -2.3457   -2.8547 H     1    ESP         0.0033
     16 H           2.9963   -2.4634   -2.8547 H     1    ESP         0.0028
     16 H           3.4356   -2.3457   -2.8547 H     1    ESP         0.0023
     16 H           3.7571   -2.0242   -2.8547 H     1    ESP         0.0019
     16 H           3.4454   -1.5849   -2.9943 H     1    ESP         0.0018
     16 H           3.2208   -1.1960   -2.9943 H     1    ESP         0.0016
     16 H           2.7717   -1.1960   -2.9943 H     1    ESP         0.0022
     16 H           2.5472   -1.5849   -2.9943 H     1    ESP         0.0029
     16 H           2.7717   -1.9738   -2.9943 H     1    ESP         0.0028
     16 H           3.2208   -1.9738   -2.9943 H     1    ESP         0.0023
     16 H           2.9963   -1.5849   -3.0415 H     1    ESP         0.0022
     16 H           2.9963   -1.5849    3.0415 H     1    ESP         0.0022
     16 H           3.4454   -1.5849    2.9943 H     1    ESP         0.0018
     16 H           3.2208   -1.1960    2.9943 H     1    ESP         0.0016
     16 H           2.7717   -1.1960    2.9943 H     1    ESP         0.0022
     16 H           2.5472   -1.5849    2.9943 H     1    ESP         0.0029
     16 H           2.7717   -1.9738    2.9943 H     1    ESP         0.0028
     16 H           3.2208   -1.9738    2.9943 H     1    ESP         0.0023
     16 H           3.8748   -1.5849    2.8547 H     1    ESP         0.0014
     16 H           3.7571   -1.1456    2.8547 H     1    ESP         0.0010
     16 H           3.4356   -0.8240    2.8547 H     1    ESP         0.0008
     16 H           2.9963   -0.7063    2.8547 H     1    ESP         0.0011
     16 H           2.5570   -0.8240    2.8547 H     1    ESP         0.0022
     16 H           2.2354   -1.1456    2.8547 H     1    ESP         0.0033
     16 H           2.1177   -1.5849    2.8547 H     1    ESP         0.0038
     16 H           2.2354   -2.0242    2.8547 H     1    ESP         0.0037
     16 H           2.5570   -2.3457    2.8547 H     1    ESP         0.0033
     16 H           2.9963   -2.4634    2.8547 H     1    ESP         0.0028
     16 H           3.4356   -2.3457    2.8547 H     1    ESP         0.0023
     16 H           3.7571   -2.0242    2.8547 H     1    ESP         0.0019
     16 H           4.2659   -1.5849    2.6290 H     1    ESP         0.0012
     16 H           4.1802   -1.1262    2.6290 H     1    ESP         0.0007
     16 H           3.9345   -0.7296    2.6290 H     1    ESP         0.0001
     16 H           3.5622   -0.4484    2.6290 H     1    ESP        -0.0003
     16 H           3.1134   -0.3207    2.6290 H     1    ESP        -0.0002
     16 H           2.6488   -0.3637    2.6290 H     1    ESP         0.0009
     16 H           2.2312   -0.5717    2.6290 H     1    ESP         0.0028
     16 H           1.9168   -0.9165    2.6290 H     1    ESP         0.0044
     16 H           1.7483   -1.3516    2.6290 H     1    ESP         0.0051
     16 H           1.7483   -1.8182    2.6290 H     1    ESP         0.0050
     16 H           1.9168   -2.2533    2.6290 H     1    ESP         0.0046
     16 H           2.2312   -2.5981    2.6290 H     1    ESP         0.0041
     16 H           2.6488   -2.8060    2.6290 H     1    ESP         0.0035
     16 H           3.1134   -2.8491    2.6290 H     1    ESP         0.0029
     16 H           3.5622   -2.7214    2.6290 H     1    ESP         0.0024
     16 H           3.9345   -2.4402    2.6290 H     1    ESP         0.0020
     16 H           4.1802   -2.0435    2.6290 H     1    ESP         0.0016
     16 H           4.6015   -1.5849    2.3268 H     1    ESP         0.0010
     16 H           4.5365   -1.1327    2.3268 H     1    ESP         0.0004
     16 H           4.3467   -0.7171    2.3268 H     1    ESP        -0.0003
     16 H           4.0475   -0.3718    2.3268 H     1    ESP        -0.0012
     16 H           3.6631   -0.1248    2.3268 H     1    ESP        -0.0020
     16 H           3.2247    0.0040    2.3268 H     1    ESP        -0.0025
     16 H           2.3295   -3.0450    2.3268 H     1    ESP         0.0042
     16 H           2.7678   -3.1737    2.3268 H     1    ESP         0.0036
     16 H           3.2247   -3.1737    2.3268 H     1    ESP         0.0030
     16 H           3.6631   -3.0450    2.3268 H     1    ESP         0.0026
     16 H           4.0475   -2.7980    2.3268 H     1    ESP         0.0022
     16 H           4.3467   -2.4527    2.3268 H     1    ESP         0.0018
     16 H           4.5365   -2.0371    2.3268 H     1    ESP         0.0014
     16 H           4.8669   -1.5849    1.9615 H     1    ESP         0.0008
     16 H           4.8081   -1.1197    1.9615 H     1    ESP         0.0002
     16 H           4.6355   -0.6837    1.9615 H     1    ESP        -0.0007
     16 H           4.3599   -0.3044    1.9615 H     1    ESP        -0.0019
     16 H           3.9986   -0.0055    1.9615 H     1    ESP        -0.0035
     16 H           2.6458   -3.4224    1.9615 H     1    ESP         0.0040
     16 H           3.1137   -3.4518    1.9615 H     1    ESP         0.0034
     16 H           3.5743   -3.3639    1.9615 H     1    ESP         0.0028
     16 H           3.9986   -3.1643    1.9615 H     1    ESP         0.0024
     16 H           4.3599   -2.8654    1.9615 H     1    ESP         0.0020
     16 H           4.6355   -2.4861    1.9615 H     1    ESP         0.0017
     16 H           4.8081   -2.0501    1.9615 H     1    ESP         0.0013
     16 H           5.0506   -1.5849    1.5490 H     1    ESP         0.0007
     16 H           4.9991   -1.1278    1.5490 H     1    ESP         0.0000
     16 H           4.8471   -0.6936    1.5490 H     1    ESP        -0.0009
     16 H           4.6024   -0.3041    1.5490 H     1    ESP        -0.0023
     16 H           4.2771    0.0212    1.5490 H     1    ESP        -0.0045
     16 H           3.4534   -3.5877    1.5490 H     1    ESP         0.0032
     16 H           3.8876   -3.4357    1.5490 H     1    ESP         0.0027
     16 H           4.2771   -3.1910    1.5490 H     1    ESP         0.0023
     16 H           4.6024   -2.8657    1.5490 H     1    ESP         0.0020
     16 H           4.8471   -2.4762    1.5490 H     1    ESP         0.0016
     16 H           4.9991   -2.0420    1.5490 H     1    ESP         0.0012
     16 H           5.1445   -1.5849    1.1073 H     1    ESP         0.0007
     16 H           5.0942   -1.1231    1.1073 H     1    ESP        -0.0001
     16 H           4.9459   -0.6829    1.1073 H     1    ESP        -0.0012
     16 H           4.7064   -0.2849    1.1073 H     1    ESP        -0.0030
     16 H           4.3870    0.0524    1.1073 H     1    ESP        -0.0059
     16 H           4.0025   -3.4828    1.1073 H     1    ESP         0.0028
     16 H           4.3870   -3.2221    1.1073 H     1    ESP         0.0024
     16 H           4.7064   -2.8849    1.1073 H     1    ESP         0.0020
     16 H           4.9459   -2.4869    1.1073 H     1    ESP         0.0016
     16 H           5.0942   -2.0467    1.1073 H     1    ESP         0.0012
     16 H           5.1445   -1.5849    0.6557 H     1    ESP         0.0007
     16 H           5.0942   -1.1231    0.6557 H     1    ESP        -0.0002
     16 H           4.9459   -0.6829    0.6557 H     1    ESP        -0.0015
     16 H           4.7064   -0.2849    0.6557 H     1    ESP        -0.0036
     16 H           4.3870   -3.2221    0.6557 H     1    ESP         0.0025
     16 H           4.7064   -2.8849    0.6557 H     1    ESP         0.0021
     16 H           4.9459   -2.4869    0.6557 H     1    ESP         0.0017
     16 H           5.0942   -2.0467    0.6557 H     1    ESP         0.0013
     16 H           5.0506   -1.5849    0.2140 H     1    ESP         0.0008
     16 H           4.9991   -2.0420    0.2140 H     1    ESP         0.0015
     16 H          -0.7265    1.2774    3.5000 H     1    ESP        -0.0023
     16 H          -0.2697    1.2774    3.4701 H     1    ESP        -0.0025
     16 H          -0.4981    1.6730    3.4701 H     1    ESP        -0.0024
     16 H          -0.9549    1.6730    3.4701 H     1    ESP        -0.0022
     16 H          -1.1833    1.2774    3.4701 H     1    ESP        -0.0020
     16 H          -0.9549    0.8818    3.4701 H     1    ESP        -0.0021
     16 H          -0.4981    0.8818    3.4701 H     1    ESP        -0.0022
     16 H           0.1794    1.2774    3.3807 H     1    ESP        -0.0027
     16 H           0.0580    1.7303    3.3807 H     1    ESP        -0.0029
     16 H          -0.2736    2.0619    3.3807 H     1    ESP        -0.0027
     16 H          -0.7265    2.1833    3.3807 H     1    ESP        -0.0023
     16 H          -1.1794    2.0619    3.3807 H     1    ESP        -0.0020
     16 H          -1.5110    1.7303    3.3807 H     1    ESP        -0.0018
     16 H          -1.6324    1.2774    3.3807 H     1    ESP        -0.0017
     16 H          -1.5110    0.8245    3.3807 H     1    ESP        -0.0018
     16 H          -1.1794    0.4929    3.3807 H     1    ESP        -0.0020
     16 H          -0.7265    0.3715    3.3807 H     1    ESP        -0.0020
     16 H          -0.2736    0.4929    3.3807 H     1    ESP        -0.0021
     16 H           0.0580    0.8245    3.3807 H     1    ESP        -0.0023
     16 H           0.6129    1.2774    3.2336 H     1    ESP        -0.0031
     16 H           0.5321    1.7355    3.2336 H     1    ESP        -0.0034
     16 H           0.2995    2.1383    3.2336 H     1    ESP        -0.0032
     16 H          -0.0568    2.4373    3.2336 H     1    ESP        -0.0029
     16 H          -0.4939    2.5964    3.2336 H     1    ESP        -0.0025
     16 H          -0.9591    2.5964    3.2336 H     1    ESP        -0.0021
     16 H          -1.3962    2.4373    3.2336 H     1    ESP        -0.0017
     16 H          -1.7525    2.1383    3.2336 H     1    ESP        -0.0015
     16 H          -1.9851    1.7355    3.2336 H     1    ESP        -0.0013
     16 H          -2.0659    1.2774    3.2336 H     1    ESP        -0.0013
     16 H          -1.9851    0.8193    3.2336 H     1    ESP        -0.0015
     16 H          -1.7525    0.4164    3.2336 H     1    ESP        -0.0017
     16 H          -1.3962    0.1174    3.2336 H     1    ESP        -0.0019
     16 H          -0.9591   -0.0417    3.2336 H     1    ESP        -0.0019
     16 H          -0.4939   -0.0417    3.2336 H     1    ESP        -0.0017
     16 H          -0.0568    0.1174    3.2336 H     1    ESP        -0.0016
     16 H           0.2995    0.4164    3.2336 H     1    ESP        -0.0019
     16 H           0.5321    0.8193    3.2336 H     1    ESP        -0.0025
     16 H           1.0235    1.2774    3.0311 H     1    ESP        -0.0037
     16 H           0.9639    1.7303    3.0311 H     1    ESP        -0.0041
     16 H           0.7891    2.1524    3.0311 H     1    ESP        -0.0040
     16 H           0.5109    2.5148    3.0311 H     1    ESP        -0.0036
     16 H           0.1485    2.7929    3.0311 H     1    ESP        -0.0031
     16 H          -0.2736    2.9678    3.0311 H     1    ESP        -0.0027
     16 H          -0.7265    3.0274    3.0311 H     1    ESP        -0.0022
     16 H          -1.1794    2.9678    3.0311 H     1    ESP        -0.0018
     16 H          -1.6015    2.7929    3.0311 H     1    ESP        -0.0014
     16 H          -1.9639    2.5148    3.0311 H     1    ESP        -0.0011
     16 H          -2.2420    2.1524    3.0311 H     1    ESP        -0.0009
     16 H          -2.4169    1.7303    3.0311 H     1    ESP        -0.0007
     16 H          -2.4765    1.2774    3.0311 H     1    ESP        -0.0008
     16 H          -2.4169    0.8245    3.0311 H     1    ESP        -0.0010
     16 H          -2.2420    0.4024    3.0311 H     1    ESP        -0.0013
     16 H          -1.9639    0.0400    3.0311 H     1    ESP        -0.0017
     16 H          -1.6015   -0.2382    3.0311 H     1    ESP        -0.0019
     16 H          -1.1794   -0.4130    3.0311 H     1    ESP        -0.0018
     16 H          -0.7265   -0.4726    3.0311 H     1    ESP        -0.0015
     16 H          -0.2736   -0.4130    3.0311 H     1    ESP        -0.0011
     16 H           0.1485   -0.2382    3.0311 H     1    ESP        -0.0008
     16 H           0.5109    0.0400    3.0311 H     1    ESP        -0.0010
     16 H           0.7891    0.4024    3.0311 H     1    ESP        -0.0017
     16 H           0.9639    0.8245    3.0311 H     1    ESP        -0.0028
     16 H           1.4042    1.2774    2.7767 H     1    ESP        -0.0049
     16 H           1.3544    1.7354    2.7767 H     1    ESP        -0.0054
     16 H           1.2072    2.1720    2.7767 H     1    ESP        -0.0052
     16 H           0.9697    2.5668    2.7767 H     1    ESP        -0.0046
     16 H           0.6529    2.9013    2.7767 H     1    ESP        -0.0039
     16 H           0.2715    3.1599    2.7767 H     1    ESP        -0.0033
     16 H          -0.1565    3.3304    2.7767 H     1    ESP        -0.0027
     16 H          -0.6111    3.4049    2.7767 H     1    ESP        -0.0022
     16 H          -1.0712    3.3800    2.7767 H     1    ESP        -0.0018
     16 H          -1.5151    3.2567    2.7767 H     1    ESP        -0.0013
     16 H          -1.9222    3.0409    2.7767 H     1    ESP        -0.0010
     16 H          -2.2733    2.7427    2.7767 H     1    ESP        -0.0006
     16 H          -2.5522    2.3759    2.7767 H     1    ESP        -0.0003
     16 H          -2.7456    1.9577    2.7767 H     1    ESP        -0.0000
     16 H          -2.8447    1.5078    2.7767 H     1    ESP         0.0001
     16 H           1.5813    2.1714    2.4749 H     1    ESP        -0.0072
     16 H           1.3777    2.5802    2.4749 H     1    ESP        -0.0061
     16 H           1.1025    2.9447    2.4749 H     1    ESP        -0.0051
     16 H           0.7650    3.2524    2.4749 H     1    ESP        -0.0042
     16 H           0.3767    3.4928    2.4749 H     1    ESP        -0.0034
     16 H          -0.0492    3.6578    2.4749 H     1    ESP        -0.0027
     16 H          -0.4981    3.7417    2.4749 H     1    ESP        -0.0022
     16 H          -0.9548    3.7417    2.4749 H     1    ESP        -0.0017
     16 H          -1.4038    3.6578    2.4749 H     1    ESP        -0.0013
     16 H          -1.8296    3.4928    2.4749 H     1    ESP        -0.0008
     16 H          -2.2179    3.2524    2.4749 H     1    ESP        -0.0004
     16 H          -2.5554    2.9447    2.4749 H     1    ESP        -0.0000
     16 H          -2.8307    2.5802    2.4749 H     1    ESP         0.0004
     16 H          -3.0342    2.1714    2.4749 H     1    ESP         0.0009
     16 H           1.7156    2.5990    2.1307 H     1    ESP        -0.0084
     16 H           1.4647    2.9829    2.1307 H     1    ESP        -0.0066
     16 H           1.1541    3.3203    2.1307 H     1    ESP        -0.0052
     16 H           0.7922    3.6020    2.1307 H     1    ESP        -0.0041
     16 H           0.3889    3.8203    2.1307 H     1    ESP        -0.0033
     16 H          -0.0448    3.9692    2.1307 H     1    ESP        -0.0026
     16 H          -0.4972    4.0446    2.1307 H     1    ESP        -0.0020
     16 H          -0.9558    4.0446    2.1307 H     1    ESP        -0.0015
     16 H          -1.4081    3.9692    2.1307 H     1    ESP        -0.0010
     16 H          -1.8419    3.8203    2.1307 H     1    ESP        -0.0006
     16 H          -2.2452    3.6020    2.1307 H     1    ESP        -0.0001
     16 H          -2.6071    3.3203    2.1307 H     1    ESP         0.0003
     16 H          -2.9177    2.9829    2.1307 H     1    ESP         0.0009
     16 H          -3.1686    2.5990    2.1307 H     1    ESP         0.0015
     16 H           1.7779    2.9849    1.7500 H     1    ESP        -0.0089
     16 H           1.4955    3.3391    1.7500 H     1    ESP        -0.0067
     16 H           1.1634    3.6472    1.7500 H     1    ESP        -0.0052
     16 H           0.7891    3.9024    1.7500 H     1    ESP        -0.0040
     16 H           0.3809    4.0990    1.7500 H     1    ESP        -0.0032
     16 H          -0.0520    4.2325    1.7500 H     1    ESP        -0.0025
     16 H          -0.5000    4.3000    1.7500 H     1    ESP        -0.0019
     16 H          -0.9530    4.3000    1.7500 H     1    ESP        -0.0013
     16 H          -1.4010    4.2325    1.7500 H     1    ESP        -0.0008
     16 H          -1.8339    4.0990    1.7500 H     1    ESP        -0.0003
     16 H          -2.2420    3.9024    1.7500 H     1    ESP         0.0001
     16 H          -2.6163    3.6472    1.7500 H     1    ESP         0.0006
     16 H          -2.9484    3.3391    1.7500 H     1    ESP         0.0012
     16 H          -3.2309    2.9849    1.7500 H     1    ESP         0.0020
     16 H           1.7506    3.3559    1.3394 H     1    ESP        -0.0084
     16 H           1.4372    3.6804    1.3394 H     1    ESP        -0.0062
     16 H           1.0817    3.9582    1.3394 H     1    ESP        -0.0047
     16 H           0.6910    4.1837    1.3394 H     1    ESP        -0.0037
     16 H           0.2727    4.3527    1.3394 H     1    ESP        -0.0029
     16 H          -0.1650    4.4618    1.3394 H     1    ESP        -0.0022
     16 H          -0.6136    4.5090    1.3394 H     1    ESP        -0.0016
     16 H          -1.0645    4.4933    1.3394 H     1    ESP        -0.0010
     16 H          -1.5088    4.4149    1.3394 H     1    ESP        -0.0005
     16 H          -1.9378    4.2755    1.3394 H     1    ESP         0.0000
     16 H          -2.3433    4.0778    1.3394 H     1    ESP         0.0005
     16 H          -2.7173    3.8255    1.3394 H     1    ESP         0.0011
     16 H          -3.0525    3.5236    1.3394 H     1    ESP         0.0017
     16 H          -3.3425    3.1780    1.3394 H     1    ESP         0.0026
     16 H           1.6238    3.7075    0.9059 H     1    ESP        -0.0072
     16 H           1.2789    3.9991    0.9059 H     1    ESP        -0.0054
     16 H           0.8982    4.2421    0.9059 H     1    ESP        -0.0041
     16 H           0.4886    4.4322    0.9059 H     1    ESP        -0.0031
     16 H           0.0572    4.5660    0.9059 H     1    ESP        -0.0024
     16 H          -0.3881    4.6412    0.9059 H     1    ESP        -0.0017
     16 H          -0.8395    4.6562    0.9059 H     1    ESP        -0.0011
     16 H          -1.2888    4.6110    0.9059 H     1    ESP        -0.0006
     16 H          -1.7281    4.5063    0.9059 H     1    ESP        -0.0000
     16 H          -2.1496    4.3440    0.9059 H     1    ESP         0.0005
     16 H          -2.5456    4.1270    0.9059 H     1    ESP         0.0010
     16 H          -2.9092    3.8591    0.9059 H     1    ESP         0.0017
     16 H          -3.2338    3.5451    0.9059 H     1    ESP         0.0025
     16 H           1.7272    3.7311    0.4568 H     1    ESP        -0.0079
     16 H           1.3859    4.0304    0.4568 H     1    ESP        -0.0058
     16 H           1.0085    4.2826    0.4568 H     1    ESP        -0.0043
     16 H           0.6014    4.4833    0.4568 H     1    ESP        -0.0033
     16 H           0.1716    4.6292    0.4568 H     1    ESP        -0.0025
     16 H          -0.2736    4.7178    0.4568 H     1    ESP        -0.0018
     16 H          -0.7265    4.7474    0.4568 H     1    ESP        -0.0012
     16 H          -1.1794    4.7178    0.4568 H     1    ESP        -0.0006
     16 H          -1.6246    4.6292    0.4568 H     1    ESP        -0.0000
     16 H          -2.0544    4.4833    0.4568 H     1    ESP         0.0005
     16 H          -2.4615    4.2826    0.4568 H     1    ESP         0.0011
     16 H          -2.8389    4.0304    0.4568 H     1    ESP         0.0017
     16 H          -3.1802    3.7311    0.4568 H     1    ESP         0.0025
     16 H          -3.4795    3.3898    0.4568 H     1    ESP         0.0036
     16 H           1.7877    3.7123    0.0000 H     1    ESP        -0.0084
     16 H           1.4557    4.0138    0.0000 H     1    ESP        -0.0061
     16 H           1.0879    4.2704    0.0000 H     1    ESP        -0.0046
     16 H           0.6902    4.4778    0.0000 H     1    ESP        -0.0035
     16 H           0.2694    4.6327    0.0000 H     1    ESP        -0.0026
     16 H          -0.1679    4.7325    0.0000 H     1    ESP        -0.0019
     16 H          -0.6143    4.7756    0.0000 H     1    ESP        -0.0013
     16 H          -1.0626    4.7612    0.0000 H     1    ESP        -0.0007
     16 H          -1.5053    4.6896    0.0000 H     1    ESP        -0.0001
     16 H          -1.9353    4.5620    0.0000 H     1    ESP         0.0004
     16 H          -2.3454    4.3805    0.0000 H     1    ESP         0.0010
     16 H          -2.7289    4.1480    0.0000 H     1    ESP         0.0016
     16 H          -3.0795    3.8684    0.0000 H     1    ESP         0.0023
     16 H          -3.3916    3.5462    0.0000 H     1    ESP         0.0032
     16 H           1.7272    3.7311   -0.4568 H     1    ESP        -0.0079
     16 H           1.3859    4.0304   -0.4568 H     1    ESP        -0.0058
     16 H           1.0085    4.2826   -0.4568 H     1    ESP        -0.0043
     16 H           0.6014    4.4833   -0.4568 H     1    ESP        -0.0033
     16 H           0.1716    4.6292   -0.4568 H     1    ESP        -0.0025
     16 H          -0.2736    4.7178   -0.4568 H     1    ESP        -0.0018
     16 H          -0.7265    4.7474   -0.4568 H     1    ESP        -0.0012
     16 H          -1.1794    4.7178   -0.4568 H     1    ESP        -0.0006
     16 H          -1.6246    4.6292   -0.4568 H     1    ESP        -0.0000
     16 H          -2.0544    4.4833   -0.4568 H     1    ESP         0.0005
     16 H          -2.4615    4.2826   -0.4568 H     1    ESP         0.0011
     16 H          -2.8389    4.0304   -0.4568 H     1    ESP         0.0017
     16 H          -3.1802    3.7311   -0.4568 H     1    ESP         0.0025
     16 H          -3.4795    3.3898   -0.4568 H     1    ESP         0.0036
     16 H           1.6238    3.7075   -0.9059 H     1    ESP        -0.0072
     16 H           1.2789    3.9991   -0.9059 H     1    ESP        -0.0054
     16 H           0.8982    4.2421   -0.9059 H     1    ESP        -0.0041
     16 H           0.4886    4.4322   -0.9059 H     1    ESP        -0.0031
     16 H           0.0572    4.5660   -0.9059 H     1    ESP        -0.0024
     16 H          -0.3881    4.6412   -0.9059 H     1    ESP        -0.0017
     16 H          -0.8395    4.6562   -0.9059 H     1    ESP        -0.0011
     16 H          -1.2888    4.6110   -0.9059 H     1    ESP        -0.0006
     16 H          -1.7281    4.5063   -0.9059 H     1    ESP        -0.0000
     16 H          -2.1496    4.3440   -0.9059 H     1    ESP         0.0005
     16 H          -2.5456    4.1270   -0.9059 H     1    ESP         0.0010
     16 H          -2.9092    3.8591   -0.9059 H     1    ESP         0.0017
     16 H          -3.2338    3.5451   -0.9059 H     1    ESP         0.0025
     16 H           1.7506    3.3559   -1.3394 H     1    ESP        -0.0084
     16 H           1.4372    3.6804   -1.3394 H     1    ESP        -0.0062
     16 H           1.0817    3.9582   -1.3394 H     1    ESP        -0.0047
     16 H           0.6910    4.1837   -1.3394 H     1    ESP        -0.0037
     16 H           0.2727    4.3527   -1.3394 H     1    ESP        -0.0029
     16 H          -0.1650    4.4618   -1.3394 H     1    ESP        -0.0022
     16 H          -0.6136    4.5090   -1.3394 H     1    ESP        -0.0016
     16 H          -1.0645    4.4933   -1.3394 H     1    ESP        -0.0010
     16 H          -1.5088    4.4149   -1.3394 H     1    ESP        -0.0005
     16 H          -1.9378    4.2755   -1.3394 H     1    ESP         0.0000
     16 H          -2.3433    4.0778   -1.3394 H     1    ESP         0.0005
     16 H          -2.7173    3.8255   -1.3394 H     1    ESP         0.0011
     16 H          -3.0525    3.5236   -1.3394 H     1    ESP         0.0017
     16 H          -3.3425    3.1780   -1.3394 H     1    ESP         0.0026
     16 H           1.7779    2.9849   -1.7500 H     1    ESP        -0.0089
     16 H           1.4955    3.3391   -1.7500 H     1    ESP        -0.0067
     16 H           1.1634    3.6472   -1.7500 H     1    ESP        -0.0052
     16 H           0.7891    3.9024   -1.7500 H     1    ESP        -0.0040
     16 H           0.3809    4.0990   -1.7500 H     1    ESP        -0.0032
     16 H          -0.0520    4.2325   -1.7500 H     1    ESP        -0.0025
     16 H          -0.5000    4.3000   -1.7500 H     1    ESP        -0.0019
     16 H          -0.9530    4.3000   -1.7500 H     1    ESP        -0.0013
     16 H          -1.4010    4.2325   -1.7500 H     1    ESP        -0.0008
     16 H          -1.8339    4.0990   -1.7500 H     1    ESP        -0.0003
     16 H          -2.2420    3.9024   -1.7500 H     1    ESP         0.0001
     16 H          -2.6163    3.6472   -1.7500 H     1    ESP         0.0006
     16 H          -2.9484    3.3391   -1.7500 H     1    ESP         0.0012
     16 H          -3.2309    2.9849   -1.7500 H     1    ESP         0.0020
     16 H           1.7156    2.5990   -2.1307 H     1    ESP        -0.0084
     16 H           1.4647    2.9829   -2.1307 H     1    ESP        -0.0066
     16 H           1.1541    3.3203   -2.1307 H     1    ESP        -0.0052
     16 H           0.7922    3.6020   -2.1307 H     1    ESP        -0.0041
     16 H           0.3889    3.8203   -2.1307 H     1    ESP        -0.0033
     16 H          -0.0448    3.9692   -2.1307 H     1    ESP        -0.0026
     16 H          -0.4972    4.0446   -2.1307 H     1    ESP        -0.0020
     16 H          -0.9558    4.0446   -2.1307 H     1    ESP        -0.0015
     16 H          -1.4081    3.9692   -2.1307 H     1    ESP        -0.0010
     16 H          -1.8419    3.8203   -2.1307 H     1    ESP        -0.0006
     16 H          -2.2452    3.6020   -2.1307 H     1    ESP        -0.0001
     16 H          -2.6071    3.3203   -2.1307 H     1    ESP         0.0003
     16 H          -2.9177    2.9829   -2.1307 H     1    ESP         0.0009
     16 H          -3.1686    2.5990   -2.1307 H     1    ESP         0.0015
     16 H           1.5813    2.1714   -2.4749 H     1    ESP        -0.0072
     16 H           1.3777    2.5802   -2.4749 H     1    ESP        -0.0061
     16 H           1.1025    2.9447   -2.4749 H     1    ESP        -0.0051
     16 H           0.7650    3.2524   -2.4749 H     1    ESP        -0.0042
     16 H           0.3767    3.4928   -2.4749 H     1    ESP        -0.0034
     16 H          -0.0492    3.6578   -2.4749 H     1    ESP        -0.0027
     16 H          -0.4981    3.7417   -2.4749 H     1    ESP        -0.0022
     16 H          -0.9548    3.7417   -2.4749 H     1    ESP        -0.0017
     16 H          -1.4038    3.6578   -2.4749 H     1    ESP        -0.0013
     16 H          -1.8296    3.4928   -2.4749 H     1    ESP        -0.0008
     16 H          -2.2179    3.2524   -2.4749 H     1    ESP        -0.0004
     16 H          -2.5554    2.9447   -2.4749 H     1    ESP        -0.0000
     16 H          -2.8307    2.5802   -2.4749 H     1    ESP         0.0004
     16 H          -3.0342    2.1714   -2.4749 H     1    ESP         0.0009
     16 H           1.4042    1.2774   -2.7767 H     1    ESP        -0.0049
     16 H           1.3544    1.7354   -2.7767 H     1    ESP        -0.0054
     16 H           1.2072    2.1720   -2.7767 H     1    ESP        -0.0052
     16 H           0.9697    2.5668   -2.7767 H     1    ESP        -0.0046
     16 H           0.6529    2.9013   -2.7767 H     1    ESP        -0.0039
     16 H           0.2715    3.1599   -2.7767 H     1    ESP        -0.0033
     16 H          -0.1565    3.3304   -2.7767 H     1    ESP        -0.0027
     16 H          -0.6111    3.4049   -2.7767 H     1    ESP        -0.0022
     16 H          -1.0712    3.3800   -2.7767 H     1    ESP        -0.0018
     16 H          -1.5151    3.2567   -2.7767 H     1    ESP        -0.0013
     16 H          -1.9222    3.0409   -2.7767 H     1    ESP        -0.0010
     16 H          -2.2733    2.7427   -2.7767 H     1    ESP        -0.0006
     16 H          -2.5522    2.3759   -2.7767 H     1    ESP        -0.0003
     16 H          -2.7456    1.9577   -2.7767 H     1    ESP        -0.0000
     16 H          -2.8447    1.5078   -2.7767 H     1    ESP         0.0001
     16 H           1.0235    1.2774   -3.0311 H     1    ESP        -0.0037
     16 H           0.9639    1.7303   -3.0311 H     1    ESP        -0.0041
     16 H           0.7891    2.1524   -3.0311 H     1    ESP        -0.0040
     16 H           0.5109    2.5148   -3.0311 H     1    ESP        -0.0036
     16 H           0.1485    2.7929   -3.0311 H     1    ESP        -0.0031
     16 H          -0.2736    2.9678   -3.0311 H     1    ESP        -0.0027
     16 H          -0.7265    3.0274   -3.0311 H     1    ESP        -0.0022
     16 H          -1.1794    2.9678   -3.0311 H     1    ESP        -0.0018
     16 H          -1.6015    2.7929   -3.0311 H     1    ESP        -0.0014
     16 H          -1.9639    2.5148   -3.0311 H     1    ESP        -0.0011
     16 H          -2.2420    2.1524   -3.0311 H     1    ESP        -0.0009
     16 H          -2.4169    1.7303   -3.0311 H     1    ESP        -0.0007
     16 H          -2.4765    1.2774   -3.0311 H     1    ESP        -0.0008
     16 H          -2.4169    0.8245   -3.0311 H     1    ESP        -0.0010
     16 H          -2.2420    0.4024   -3.0311 H     1    ESP        -0.0013
     16 H          -1.9639    0.0400   -3.0311 H     1    ESP        -0.0017
     16 H          -1.6015   -0.2382   -3.0311 H     1    ESP        -0.0019
     16 H          -1.1794   -0.4130   -3.0311 H     1    ESP        -0.0018
     16 H          -0.7265   -0.4726   -3.0311 H     1    ESP        -0.0015
     16 H          -0.2736   -0.4130   -3.0311 H     1    ESP        -0.0011
     16 H           0.1485   -0.2382   -3.0311 H     1    ESP        -0.0008
     16 H           0.5109    0.0400   -3.0311 H     1    ESP        -0.0010
     16 H           0.7891    0.4024   -3.0311 H     1    ESP        -0.0017
     16 H           0.9639    0.8245   -3.0311 H     1    ESP        -0.0028
     16 H           0.6129    1.2774   -3.2336 H     1    ESP        -0.0031
     16 H           0.5321    1.7355   -3.2336 H     1    ESP        -0.0034
     16 H           0.2995    2.1383   -3.2336 H     1    ESP        -0.0032
     16 H          -0.0568    2.4373   -3.2336 H     1    ESP        -0.0029
     16 H          -0.4939    2.5964   -3.2336 H     1    ESP        -0.0025
     16 H          -0.9591    2.5964   -3.2336 H     1    ESP        -0.0021
     16 H          -1.3962    2.4373   -3.2336 H     1    ESP        -0.0017
     16 H          -1.7525    2.1383   -3.2336 H     1    ESP        -0.0015
     16 H          -1.9851    1.7355   -3.2336 H     1    ESP        -0.0013
     16 H          -2.0659    1.2774   -3.2336 H     1    ESP        -0.0013
     16 H          -1.9851    0.8193   -3.2336 H     1    ESP        -0.0015
     16 H          -1.7525    0.4164   -3.2336 H     1    ESP        -0.0017
     16 H          -1.3962    0.1174   -3.2336 H     1    ESP        -0.0019
     16 H          -0.9591   -0.0417   -3.2336 H     1    ESP        -0.0019
     16 H          -0.4939   -0.0417   -3.2336 H     1    ESP        -0.0017
     16 H          -0.0568    0.1174   -3.2336 H     1    ESP        -0.0016
     16 H           0.2995    0.4164   -3.2336 H     1    ESP        -0.0019
     16 H           0.5321    0.8193   -3.2336 H     1    ESP        -0.0025
     16 H           0.1794    1.2774   -3.3807 H     1    ESP        -0.0027
     16 H           0.0580    1.7303   -3.3807 H     1    ESP        -0.0029
     16 H          -0.2736    2.0619   -3.3807 H     1    ESP        -0.0027
     16 H          -0.7265    2.1833   -3.3807 H     1    ESP        -0.0023
     16 H          -1.1794    2.0619   -3.3807 H     1    ESP        -0.0020
     16 H          -1.5110    1.7303   -3.3807 H     1    ESP        -0.0018
     16 H          -1.6324    1.2774   -3.3807 H     1    ESP        -0.0017
     16 H          -1.5110    0.8245   -3.3807 H     1    ESP        -0.0018
     16 H          -1.1794    0.4929   -3.3807 H     1    ESP        -0.0020
     16 H          -0.7265    0.3715   -3.3807 H     1    ESP        -0.0020
     16 H          -0.2736    0.4929   -3.3807 H     1    ESP        -0.0021
     16 H           0.0580    0.8245   -3.3807 H     1    ESP        -0.0023
     16 H          -0.2697    1.2774   -3.4701 H     1    ESP        -0.0025
     16 H          -0.4981    1.6730   -3.4701 H     1    ESP        -0.0024
     16 H          -0.9549    1.6730   -3.4701 H     1    ESP        -0.0022
     16 H          -1.1833    1.2774   -3.4701 H     1    ESP        -0.0020
     16 H          -0.9549    0.8818   -3.4701 H     1    ESP        -0.0021
     16 H          -0.4981    0.8818   -3.4701 H     1    ESP        -0.0022
     16 H          -0.7265    1.2774   -3.5000 H     1    ESP        -0.0023
     16 H          -2.7015    0.4737    2.9665 H     1    ESP        -0.0005
     16 H          -2.4779    0.0865    2.9665 H     1    ESP        -0.0009
     16 H          -3.0202    0.9158    2.8667 H     1    ESP         0.0002
     16 H          -3.1386    0.4737    2.8667 H     1    ESP         0.0003
     16 H          -3.0202    0.0316    2.8667 H     1    ESP         0.0001
     16 H          -3.2515    1.3104    2.7029 H     1    ESP         0.0009
     16 H          -3.4775    0.9189    2.7029 H     1    ESP         0.0012
     16 H          -3.5560    0.4737    2.7029 H     1    ESP         0.0012
     16 H          -3.4775    0.0285    2.7029 H     1    ESP         0.0010
     16 H          -3.2289    1.8543    2.4787 H     1    ESP         0.0013
     16 H          -3.5653    1.5402    2.4787 H     1    ESP         0.0018
     16 H          -3.8044    1.1470    2.4787 H     1    ESP         0.0021
     16 H          -3.9286    0.7038    2.4787 H     1    ESP         0.0021
     16 H          -3.9286    0.2436    2.4787 H     1    ESP         0.0020
     16 H          -3.8044   -0.1996    2.4787 H     1    ESP         0.0017
     16 H          -3.5266    2.0690    2.1992 H     1    ESP         0.0023
     16 H          -3.8497    1.7459    2.1992 H     1    ESP         0.0028
     16 H          -4.0928    1.3590    2.1992 H     1    ESP         0.0031
     16 H          -4.2437    0.9278    2.1992 H     1    ESP         0.0031
     16 H          -4.2949    0.4737    2.1992 H     1    ESP         0.0029
     16 H          -4.2437    0.0196    2.1992 H     1    ESP         0.0027
     16 H          -4.5999    0.4737    1.8705 H     1    ESP         0.0038
     16 H          -4.5548    0.0161    1.8705 H     1    ESP         0.0036
     16 H          -4.8130    0.0225    1.5000 H     1    ESP         0.0043
     16 H          -4.6958   -0.4149    1.5000 H     1    ESP         0.0043
     16 H          -4.9658   -0.1946    1.0960 H     1    ESP         0.0049
     16 H          -5.0360   -0.4301    0.6676 H     1    ESP         0.0055
     16 H          -5.0360   -0.4301   -0.6676 H     1    ESP         0.0055
     16 H          -4.9658   -0.1946   -1.0960 H     1    ESP         0.0049
     16 H          -4.8130    0.0225   -1.5000 H     1    ESP         0.0043
     16 H          -4.6958   -0.4149   -1.5000 H     1    ESP         0.0043
     16 H          -4.5999    0.4737   -1.8705 H     1    ESP         0.0038
     16 H          -4.5548    0.0161   -1.8705 H     1    ESP         0.0036
     16 H          -3.5266    2.0690   -2.1992 H     1    ESP         0.0023
     16 H          -3.8497    1.7459   -2.1992 H     1    ESP         0.0028
     16 H          -4.0928    1.3590   -2.1992 H     1    ESP         0.0031
     16 H          -4.2437    0.9278   -2.1992 H     1    ESP         0.0031
     16 H          -4.2949    0.4737   -2.1992 H     1    ESP         0.0029
     16 H          -4.2437    0.0196   -2.1992 H     1    ESP         0.0027
     16 H          -3.2289    1.8543   -2.4787 H     1    ESP         0.0013
     16 H          -3.5653    1.5402   -2.4787 H     1    ESP         0.0018
     16 H          -3.8044    1.1470   -2.4787 H     1    ESP         0.0021
     16 H          -3.9286    0.7038   -2.4787 H     1    ESP         0.0021
     16 H          -3.9286    0.2436   -2.4787 H     1    ESP         0.0020
     16 H          -3.8044   -0.1996   -2.4787 H     1    ESP         0.0017
     16 H          -3.2515    1.3104   -2.7029 H     1    ESP         0.0009
     16 H          -3.4775    0.9189   -2.7029 H     1    ESP         0.0012
     16 H          -3.5560    0.4737   -2.7029 H     1    ESP         0.0012
     16 H          -3.4775    0.0285   -2.7029 H     1    ESP         0.0010
     16 H          -3.0202    0.9158   -2.8667 H     1    ESP         0.0002
     16 H          -3.1386    0.4737   -2.8667 H     1    ESP         0.0003
     16 H          -3.0202    0.0316   -2.8667 H     1    ESP         0.0001
     16 H          -2.7015    0.4737   -2.9665 H     1    ESP        -0.0005
     16 H          -2.4779    0.0865   -2.9665 H     1    ESP        -0.0009
     16 H          -2.1294   -0.8942    3.0000 H     1    ESP        -0.0006
     16 H          -1.6822   -0.8942    2.9665 H     1    ESP        -0.0010
     16 H          -1.9058   -0.5069    2.9665 H     1    ESP        -0.0014
     16 H          -2.3529   -0.5069    2.9665 H     1    ESP        -0.0008
     16 H          -2.5765   -0.8942    2.9665 H     1    ESP        -0.0001
     16 H          -2.3529   -1.2814    2.9665 H     1    ESP         0.0002
     16 H          -1.9058   -1.2814    2.9665 H     1    ESP        -0.0002
     16 H          -2.8952   -0.4520    2.8667 H     1    ESP         0.0000
     16 H          -3.0136   -0.8942    2.8667 H     1    ESP         0.0005
     16 H          -2.8952   -1.3363    2.8667 H     1    ESP         0.0008
     16 H          -2.5715   -1.6600    2.8667 H     1    ESP         0.0009
     16 H          -2.1294   -1.7784    2.8667 H     1    ESP         0.0007
     16 H          -1.6872   -1.6600    2.8667 H     1    ESP         0.0004
     16 H          -3.3525   -0.4490    2.7029 H     1    ESP         0.0008
     16 H          -3.4310   -0.8942    2.7029 H     1    ESP         0.0012
     16 H          -3.3525   -1.3393    2.7029 H     1    ESP         0.0015
     16 H          -3.1265   -1.7308    2.7029 H     1    ESP         0.0016
     16 H          -2.7802   -2.0214    2.7029 H     1    ESP         0.0016
     16 H          -2.3554   -2.1760    2.7029 H     1    ESP         0.0015
     16 H          -1.9033   -2.1760    2.7029 H     1    ESP         0.0014
     16 H          -3.8036   -0.6640    2.4787 H     1    ESP         0.0018
     16 H          -3.8036   -1.1243    2.4787 H     1    ESP         0.0020
     16 H          -3.6794   -1.5674    2.4787 H     1    ESP         0.0022
     16 H          -3.4403   -1.9607    2.4787 H     1    ESP         0.0024
     16 H          -3.1039   -2.2748    2.4787 H     1    ESP         0.0024
     16 H          -2.6953   -2.4865    2.4787 H     1    ESP         0.0023
     16 H          -2.2447   -2.5802    2.4787 H     1    ESP         0.0022
     16 H          -4.1187   -0.4401    2.1992 H     1    ESP         0.0026
     16 H          -4.1699   -0.8942    2.1992 H     1    ESP         0.0027
     16 H          -4.1187   -1.3482    2.1992 H     1    ESP         0.0029
     16 H          -3.9678   -1.7795    2.1992 H     1    ESP         0.0031
     16 H          -3.4016   -2.4895    2.1992 H     1    ESP         0.0032
     16 H          -3.0147   -2.7326    2.1992 H     1    ESP         0.0031
     16 H          -2.5834   -2.8835    2.1992 H     1    ESP         0.0030
     16 H          -2.1294   -2.9347    2.1992 H     1    ESP         0.0031
     16 H          -4.4298   -0.4366    1.8705 H     1    ESP         0.0034
     16 H          -4.4749   -0.8942    1.8705 H     1    ESP         0.0034
     16 H          -2.5870   -3.1946    1.8705 H     1    ESP         0.0038
     16 H          -2.1294   -3.2397    1.8705 H     1    ESP         0.0039
     16 H          -4.6880   -0.4430    1.5000 H     1    ESP         0.0043
     16 H          -4.7274   -0.8942    1.5000 H     1    ESP         0.0042
     16 H          -2.5805   -3.4528    1.5000 H     1    ESP         0.0045
     16 H          -4.9129   -0.6694    1.0960 H     1    ESP         0.0048
     16 H          -2.2418   -3.6845    1.0960 H     1    ESP         0.0054
     16 H          -4.9129   -0.6694   -1.0960 H     1    ESP         0.0048
     16 H          -2.2418   -3.6845   -1.0960 H     1    ESP         0.0054
     16 H          -4.6880   -0.4430   -1.5000 H     1    ESP         0.0043
     16 H          -4.7274   -0.8942   -1.5000 H     1    ESP         0.0042
     16 H          -2.5805   -3.4528   -1.5000 H     1    ESP         0.0045
     16 H          -4.4298   -0.4366   -1.8705 H     1    ESP         0.0034
     16 H          -4.4749   -0.8942   -1.8705 H     1    ESP         0.0034
     16 H          -2.5870   -3.1946   -1.8705 H     1    ESP         0.0038
     16 H          -2.1294   -3.2397   -1.8705 H     1    ESP         0.0039
     16 H          -4.1187   -0.4401   -2.1992 H     1    ESP         0.0026
     16 H          -4.1699   -0.8942   -2.1992 H     1    ESP         0.0027
     16 H          -4.1187   -1.3482   -2.1992 H     1    ESP         0.0029
     16 H          -3.9678   -1.7795   -2.1992 H     1    ESP         0.0031
     16 H          -3.4016   -2.4895   -2.1992 H     1    ESP         0.0032
     16 H          -3.0147   -2.7326   -2.1992 H     1    ESP         0.0031
     16 H          -2.5834   -2.8835   -2.1992 H     1    ESP         0.0030
     16 H          -2.1294   -2.9347   -2.1992 H     1    ESP         0.0031
     16 H          -3.8036   -0.6640   -2.4787 H     1    ESP         0.0018
     16 H          -3.8036   -1.1243   -2.4787 H     1    ESP         0.0020
     16 H          -3.6794   -1.5674   -2.4787 H     1    ESP         0.0022
     16 H          -3.4403   -1.9607   -2.4787 H     1    ESP         0.0024
     16 H          -3.1039   -2.2748   -2.4787 H     1    ESP         0.0024
     16 H          -2.6953   -2.4865   -2.4787 H     1    ESP         0.0023
     16 H          -2.2447   -2.5802   -2.4787 H     1    ESP         0.0022
     16 H          -3.3525   -0.4490   -2.7029 H     1    ESP         0.0008
     16 H          -3.4310   -0.8942   -2.7029 H     1    ESP         0.0012
     16 H          -3.3525   -1.3393   -2.7029 H     1    ESP         0.0015
     16 H          -3.1265   -1.7308   -2.7029 H     1    ESP         0.0016
     16 H          -2.7802   -2.0214   -2.7029 H     1    ESP         0.0016
     16 H          -2.3554   -2.1760   -2.7029 H     1    ESP         0.0015
     16 H          -1.9033   -2.1760   -2.7029 H     1    ESP         0.0014
     16 H          -2.8952   -0.4520   -2.8667 H     1    ESP         0.0000
     16 H          -3.0136   -0.8942   -2.8667 H     1    ESP         0.0005
     16 H          -2.8952   -1.3363   -2.8667 H     1    ESP         0.0008
     16 H          -2.5715   -1.6600   -2.8667 H     1    ESP         0.0009
     16 H          -2.1294   -1.7784   -2.8667 H     1    ESP         0.0007
     16 H          -1.6872   -1.6600   -2.8667 H     1    ESP         0.0004
     16 H          -1.6822   -0.8942   -2.9665 H     1    ESP        -0.0010
     16 H          -1.9058   -0.5069   -2.9665 H     1    ESP        -0.0014
     16 H          -2.3529   -0.5069   -2.9665 H     1    ESP        -0.0008
     16 H          -2.5765   -0.8942   -2.9665 H     1    ESP        -0.0001
     16 H          -2.3529   -1.2814   -2.9665 H     1    ESP         0.0002
     16 H          -1.9058   -1.2814   -2.9665 H     1    ESP        -0.0002
     16 H          -2.1294   -0.8942   -3.0000 H     1    ESP        -0.0006
     16 H          -0.7717   -1.3096    3.0000 H     1    ESP         0.0001
     16 H          -0.3246   -1.3096    2.9665 H     1    ESP         0.0007
     16 H          -0.5481   -0.9223    2.9665 H     1    ESP        -0.0005
     16 H          -0.9953   -0.9223    2.9665 H     1    ESP        -0.0009
     16 H          -1.2188   -1.3096    2.9665 H     1    ESP        -0.0002
     16 H          -0.9953   -1.6968    2.9665 H     1    ESP         0.0007
     16 H          -0.5481   -1.6968    2.9665 H     1    ESP         0.0011
     16 H           0.1126   -1.3096    2.8667 H     1    ESP         0.0016
     16 H          -1.5375   -1.7517    2.8667 H     1    ESP         0.0005
     16 H          -1.2138   -2.0754    2.8667 H     1    ESP         0.0013
     16 H          -0.7717   -2.1938    2.8667 H     1    ESP         0.0018
     16 H          -0.3296   -2.0754    2.8667 H     1    ESP         0.0021
     16 H          -0.0059   -1.7517    2.8667 H     1    ESP         0.0021
     16 H          -1.7688   -2.1462    2.7029 H     1    ESP         0.0013
     16 H          -1.4225   -2.4368    2.7029 H     1    ESP         0.0019
     16 H          -0.9977   -2.5914    2.7029 H     1    ESP         0.0024
     16 H          -0.5457   -2.5914    2.7029 H     1    ESP         0.0029
     16 H          -0.1209   -2.4368    2.7029 H     1    ESP         0.0032
     16 H           0.2254   -2.1462    2.7029 H     1    ESP         0.0034
     16 H           0.4515   -1.7548    2.7029 H     1    ESP         0.0034
     16 H          -1.7463   -2.6902    2.4787 H     1    ESP         0.0024
     16 H          -1.3376   -2.9019    2.4787 H     1    ESP         0.0029
     16 H          -0.8870   -2.9956    2.4787 H     1    ESP         0.0034
     16 H          -0.4279   -2.9642    2.4787 H     1    ESP         0.0038
     16 H           0.0058   -2.8101    2.4787 H     1    ESP         0.0042
     16 H           0.3818   -2.5446    2.4787 H     1    ESP         0.0045
     16 H           0.6722   -2.1876    2.4787 H     1    ESP         0.0048
     16 H          -1.6570   -3.1480    2.1992 H     1    ESP         0.0034
     16 H          -1.2258   -3.2989    2.1992 H     1    ESP         0.0039
     16 H          -0.7717   -3.3501    2.1992 H     1    ESP         0.0044
     16 H          -0.3176   -3.2989    2.1992 H     1    ESP         0.0048
     16 H           0.1136   -3.1480    2.1992 H     1    ESP         0.0052
     16 H           0.5005   -2.9049    2.1992 H     1    ESP         0.0056
     16 H          -2.0748   -3.2598    1.8705 H     1    ESP         0.0040
     16 H          -1.6693   -3.4765    1.8705 H     1    ESP         0.0043
     16 H          -2.0707   -3.5596    1.5000 H     1    ESP         0.0048
     16 H          -2.1680   -3.7280    1.0960 H     1    ESP         0.0054
     16 H          -2.1680   -3.7280   -1.0960 H     1    ESP         0.0054
     16 H          -2.0707   -3.5596   -1.5000 H     1    ESP         0.0048
     16 H          -2.0748   -3.2598   -1.8705 H     1    ESP         0.0040
     16 H          -1.6693   -3.4765   -1.8705 H     1    ESP         0.0043
     16 H          -1.6570   -3.1480   -2.1992 H     1    ESP         0.0034
     16 H          -1.2258   -3.2989   -2.1992 H     1    ESP         0.0039
     16 H          -0.7717   -3.3501   -2.1992 H     1    ESP         0.0044
     16 H          -0.3176   -3.2989   -2.1992 H     1    ESP         0.0048
     16 H           0.1136   -3.1480   -2.1992 H     1    ESP         0.0052
     16 H           0.5005   -2.9049   -2.1992 H     1    ESP         0.0056
     16 H          -1.7463   -2.6902   -2.4787 H     1    ESP         0.0024
     16 H          -1.3376   -2.9019   -2.4787 H     1    ESP         0.0029
     16 H          -0.8870   -2.9956   -2.4787 H     1    ESP         0.0034
     16 H          -0.4279   -2.9642   -2.4787 H     1    ESP         0.0038
     16 H           0.0058   -2.8101   -2.4787 H     1    ESP         0.0042
     16 H           0.3818   -2.5446   -2.4787 H     1    ESP         0.0045
     16 H           0.6722   -2.1876   -2.4787 H     1    ESP         0.0048
     16 H          -1.7688   -2.1462   -2.7029 H     1    ESP         0.0013
     16 H          -1.4225   -2.4368   -2.7029 H     1    ESP         0.0019
     16 H          -0.9977   -2.5914   -2.7029 H     1    ESP         0.0024
     16 H          -0.5457   -2.5914   -2.7029 H     1    ESP         0.0029
     16 H          -0.1209   -2.4368   -2.7029 H     1    ESP         0.0032
     16 H           0.2254   -2.1462   -2.7029 H     1    ESP         0.0034
     16 H           0.4515   -1.7548   -2.7029 H     1    ESP         0.0034
     16 H           0.1126   -1.3096   -2.8667 H     1    ESP         0.0016
     16 H          -1.5375   -1.7517   -2.8667 H     1    ESP         0.0005
     16 H          -1.2138   -2.0754   -2.8667 H     1    ESP         0.0013
     16 H          -0.7717   -2.1938   -2.8667 H     1    ESP         0.0018
     16 H          -0.3296   -2.0754   -2.8667 H     1    ESP         0.0021
     16 H          -0.0059   -1.7517   -2.8667 H     1    ESP         0.0021
     16 H          -0.3246   -1.3096   -2.9665 H     1    ESP         0.0007
     16 H          -0.5481   -0.9223   -2.9665 H     1    ESP        -0.0005
     16 H          -0.9953   -0.9223   -2.9665 H     1    ESP        -0.0009
     16 H          -1.2188   -1.3096   -2.9665 H     1    ESP        -0.0002
     16 H          -0.9953   -1.6968   -2.9665 H     1    ESP         0.0007
     16 H          -0.5481   -1.6968   -2.9665 H     1    ESP         0.0011
     16 H          -0.7717   -1.3096   -3.0000 H     1    ESP         0.0001
     16 H           0.5671   -0.2552    2.9665 H     1    ESP        -0.0000
     16 H          -0.1036   -0.6424    2.9665 H     1    ESP        -0.0004
     16 H           0.3436   -0.6424    2.9665 H     1    ESP         0.0005
     16 H           0.1200   -1.1395    2.8667 H     1    ESP         0.0012
     16 H           0.5621   -1.0210    2.8667 H     1    ESP         0.0020
     16 H           0.7708   -1.3825    2.7029 H     1    ESP         0.0036
     16 H           0.7708   -1.3825   -2.7029 H     1    ESP         0.0036
     16 H           0.1200   -1.1395   -2.8667 H     1    ESP         0.0012
     16 H           0.5621   -1.0210   -2.8667 H     1    ESP         0.0020
     16 H           0.5671   -0.2552   -2.9665 H     1    ESP        -0.0000
     16 H          -0.1036   -0.6424   -2.9665 H     1    ESP        -0.0004
     16 H           0.3436   -0.6424   -2.9665 H     1    ESP         0.0005
     16 H           1.5912   -0.2386    3.0000 H     1    ESP         0.0008
     16 H           2.0383   -0.2386    2.9665 H     1    ESP         0.0006
     16 H           1.8147    0.1487    2.9665 H     1    ESP        -0.0007
     16 H           1.3676    0.1487    2.9665 H     1    ESP        -0.0005
     16 H           1.1440   -0.2386    2.9665 H     1    ESP         0.0007
     16 H           1.3676   -0.6258    2.9665 H     1    ESP         0.0020
     16 H           1.8147   -0.6258    2.9665 H     1    ESP         0.0020
     16 H           2.4754   -0.2386    2.8667 H     1    ESP         0.0003
     16 H           2.3569    0.2036    2.8667 H     1    ESP        -0.0015
     16 H           2.0333    0.5272    2.8667 H     1    ESP        -0.0026
     16 H           1.5912    0.6457    2.8667 H     1    ESP        -0.0027
     16 H           1.1490    0.5272    2.8667 H     1    ESP        -0.0020
     16 H           1.1490   -1.0043    2.8667 H     1    ESP         0.0030
     16 H           2.8143    0.2066    2.7029 H     1    ESP        -0.0023
     16 H           0.9403   -1.3658    2.7029 H     1    ESP         0.0039
     16 H           2.8143    0.2066   -2.7029 H     1    ESP        -0.0023
     16 H           0.9403   -1.3658   -2.7029 H     1    ESP         0.0039
     16 H           2.4754   -0.2386   -2.8667 H     1    ESP         0.0003
     16 H           2.3569    0.2036   -2.8667 H     1    ESP        -0.0015
     16 H           2.0333    0.5272   -2.8667 H     1    ESP        -0.0026
     16 H           1.5912    0.6457   -2.8667 H     1    ESP        -0.0027
     16 H           1.1490    0.5272   -2.8667 H     1    ESP        -0.0020
     16 H           1.1490   -1.0043   -2.8667 H     1    ESP         0.0030
     16 H           2.0383   -0.2386   -2.9665 H     1    ESP         0.0006
     16 H           1.8147    0.1487   -2.9665 H     1    ESP        -0.0007
     16 H           1.3676    0.1487   -2.9665 H     1    ESP        -0.0005
     16 H           1.1440   -0.2386   -2.9665 H     1    ESP         0.0007
     16 H           1.3676   -0.6258   -2.9665 H     1    ESP         0.0020
     16 H           1.8147   -0.6258   -2.9665 H     1    ESP         0.0020
     16 H           1.5912   -0.2386   -3.0000 H     1    ESP         0.0008
     16 H           1.4630   -1.5599    2.8667 H     1    ESP         0.0039
     16 H           1.5814   -2.0021    2.8667 H     1    ESP         0.0039
     16 H           1.0456   -1.5599    2.7029 H     1    ESP         0.0042
     16 H           1.1241   -2.0051    2.7029 H     1    ESP         0.0044
     16 H           1.3501   -2.3966    2.7029 H     1    ESP         0.0043
     16 H           1.6964   -2.6872    2.7029 H     1    ESP         0.0040
     16 H           0.7972   -2.2332    2.4787 H     1    ESP         0.0050
     16 H           1.0363   -2.6264    2.4787 H     1    ESP         0.0049
     16 H           1.3727   -2.9406    2.4787 H     1    ESP         0.0045
     16 H           1.7813   -3.1523    2.4787 H     1    ESP         0.0041
     16 H           2.2319   -3.2459    2.4787 H     1    ESP         0.0036
     16 H           0.7519   -2.8322    2.1992 H     1    ESP         0.0058
     16 H           1.4619   -3.3984    2.1992 H     1    ESP         0.0047
     16 H           1.8932   -3.5493    2.1992 H     1    ESP         0.0041
     16 H           2.3472   -3.6004    2.1992 H     1    ESP         0.0036
     16 H           2.3472   -3.9054    1.8705 H     1    ESP         0.0037
     16 H           2.8048   -3.8603    1.8705 H     1    ESP         0.0033
     16 H           2.7984   -4.1185    1.5000 H     1    ESP         0.0033
     16 H           3.2358   -4.0013    1.5000 H     1    ESP         0.0029
     16 H           3.1242   -4.2423    1.0960 H     1    ESP         0.0030
     16 H           3.5444   -4.0829    1.0960 H     1    ESP         0.0027
     16 H           3.9336   -3.8582    1.0960 H     1    ESP         0.0025
     16 H           3.2511   -4.3416    0.6676 H     1    ESP         0.0029
     16 H           3.6751   -4.1659    0.6676 H     1    ESP         0.0026
     16 H           4.0664   -3.9261    0.6676 H     1    ESP         0.0024
     16 H           4.4154   -3.6281    0.6676 H     1    ESP         0.0021
     16 H           4.7134   -3.2791    0.6676 H     1    ESP         0.0019
     16 H           5.3389   -1.5599    0.2242 H     1    ESP         0.0004
     16 H           5.3038   -1.1033    0.2242 H     1    ESP        -0.0004
     16 H           5.1994   -0.6573    0.2242 H     1    ESP        -0.0016
     16 H           5.0282   -0.2325    0.2242 H     1    ESP        -0.0034
     16 H           3.3585   -4.3754    0.2242 H     1    ESP         0.0029
     16 H           3.7764   -4.1881    0.2242 H     1    ESP         0.0025
     16 H           4.1608   -3.9391    0.2242 H     1    ESP         0.0023
     16 H           4.5028   -3.6344    0.2242 H     1    ESP         0.0021
     16 H           4.7942   -3.2811    0.2242 H     1    ESP         0.0019
     16 H           5.0282   -2.8874    0.2242 H     1    ESP         0.0016
     16 H           5.1994   -2.4626    0.2242 H     1    ESP         0.0013
     16 H           5.3038   -2.0166    0.2242 H     1    ESP         0.0009
     16 H           5.3389   -1.5599   -0.2242 H     1    ESP         0.0004
     16 H           5.3038   -1.1033   -0.2242 H     1    ESP        -0.0004
     16 H           5.1994   -0.6573   -0.2242 H     1    ESP        -0.0016
     16 H           5.0282   -0.2325   -0.2242 H     1    ESP        -0.0034
     16 H           3.3585   -4.3754   -0.2242 H     1    ESP         0.0029
     16 H           3.7764   -4.1881   -0.2242 H     1    ESP         0.0025
     16 H           4.1608   -3.9391   -0.2242 H     1    ESP         0.0023
     16 H           4.5028   -3.6344   -0.2242 H     1    ESP         0.0021
     16 H           4.7942   -3.2811   -0.2242 H     1    ESP         0.0019
     16 H           5.0282   -2.8874   -0.2242 H     1    ESP         0.0016
     16 H           5.1994   -2.4626   -0.2242 H     1    ESP         0.0013
     16 H           5.3038   -2.0166   -0.2242 H     1    ESP         0.0009
     16 H           3.2511   -4.3416   -0.6676 H     1    ESP         0.0029
     16 H           3.6751   -4.1659   -0.6676 H     1    ESP         0.0026
     16 H           4.0664   -3.9261   -0.6676 H     1    ESP         0.0024
     16 H           4.4154   -3.6281   -0.6676 H     1    ESP         0.0021
     16 H           4.7134   -3.2791   -0.6676 H     1    ESP         0.0019
     16 H           3.1242   -4.2423   -1.0960 H     1    ESP         0.0030
     16 H           3.5444   -4.0829   -1.0960 H     1    ESP         0.0027
     16 H           3.9336   -3.8582   -1.0960 H     1    ESP         0.0025
     16 H           2.7984   -4.1185   -1.5000 H     1    ESP         0.0033
     16 H           3.2358   -4.0013   -1.5000 H     1    ESP         0.0029
     16 H           2.3472   -3.9054   -1.8705 H     1    ESP         0.0037
     16 H           2.8048   -3.8603   -1.8705 H     1    ESP         0.0033
     16 H           0.7519   -2.8322   -2.1992 H     1    ESP         0.0058
     16 H           1.4619   -3.3984   -2.1992 H     1    ESP         0.0047
     16 H           1.8932   -3.5493   -2.1992 H     1    ESP         0.0041
     16 H           2.3472   -3.6004   -2.1992 H     1    ESP         0.0036
     16 H           0.7972   -2.2332   -2.4787 H     1    ESP         0.0050
     16 H           1.0363   -2.6264   -2.4787 H     1    ESP         0.0049
     16 H           1.3727   -2.9406   -2.4787 H     1    ESP         0.0045
     16 H           1.7813   -3.1523   -2.4787 H     1    ESP         0.0041
     16 H           2.2319   -3.2459   -2.4787 H     1    ESP         0.0036
     16 H           1.0456   -1.5599   -2.7029 H     1    ESP         0.0042
     16 H           1.1241   -2.0051   -2.7029 H     1    ESP         0.0044
     16 H           1.3501   -2.3966   -2.7029 H     1    ESP         0.0043
     16 H           1.6964   -2.6872   -2.7029 H     1    ESP         0.0040
     16 H           1.4630   -1.5599   -2.8667 H     1    ESP         0.0039
     16 H           1.5814   -2.0021   -2.8667 H     1    ESP         0.0039
     16 H           2.2063    0.8204    2.8000 H     1    ESP        -0.0043
     16 H           2.6671    0.8204    2.7618 H     1    ESP        -0.0047
     16 H           2.4367    1.2195    2.7618 H     1    ESP        -0.0058
     16 H           1.9758    1.2195    2.7618 H     1    ESP        -0.0055
     16 H           3.1154    0.8204    2.6483 H     1    ESP        -0.0053
     16 H           2.9936    1.2750    2.6483 H     1    ESP        -0.0065
     16 H           2.6608    1.6077    2.6483 H     1    ESP        -0.0071
     16 H           2.2063    1.7295    2.6483 H     1    ESP        -0.0071
     16 H           1.7517    1.6077    2.6483 H     1    ESP        -0.0065
     16 H           2.9936    0.3658    2.6483 H     1    ESP        -0.0034
     16 H           3.5389    0.8204    2.4625 H     1    ESP        -0.0058
     16 H           3.4585    1.2762    2.4625 H     1    ESP        -0.0069
     16 H           3.2271    1.6770    2.4625 H     1    ESP        -0.0077
     16 H           2.8726    1.9745    2.4625 H     1    ESP        -0.0080
     16 H           2.4377    2.1328    2.4625 H     1    ESP        -0.0081
     16 H           1.9748    2.1328    2.4625 H     1    ESP        -0.0079
     16 H           3.4585    0.3646    2.4625 H     1    ESP        -0.0041
     16 H           3.9261    0.8204    2.2096 H     1    ESP        -0.0062
     16 H           3.8623    1.2844    2.2096 H     1    ESP        -0.0073
     16 H           3.6757    1.7140    2.2096 H     1    ESP        -0.0081
     16 H           3.3801    2.0773    2.2096 H     1    ESP        -0.0086
     16 H           2.9975    2.3474    2.2096 H     1    ESP        -0.0088
     16 H           2.5562    2.5042    2.2096 H     1    ESP        -0.0088
     16 H           2.0889    2.5362    2.2096 H     1    ESP        -0.0086
     16 H           3.8623    0.3564    2.2096 H     1    ESP        -0.0046
     16 H           4.2663    0.8204    1.8964 H     1    ESP        -0.0066
     16 H           4.2146    1.2788    1.8964 H     1    ESP        -0.0076
     16 H           4.0623    1.7142    1.8964 H     1    ESP        -0.0084
     16 H           3.8169    2.1048    1.8964 H     1    ESP        -0.0089
     16 H           3.4907    2.4310    1.8964 H     1    ESP        -0.0093
     16 H           3.1001    2.6764    1.8964 H     1    ESP        -0.0094
     16 H           2.6647    2.8288    1.8964 H     1    ESP        -0.0094
     16 H           2.2063    2.8804    1.8964 H     1    ESP        -0.0092
     16 H           4.2146    0.3620    1.8964 H     1    ESP        -0.0052
     16 H           4.5503    0.8204    1.5315 H     1    ESP        -0.0069
     16 H           4.5053    1.2777    1.5315 H     1    ESP        -0.0079
     16 H           4.3719    1.7174    1.5315 H     1    ESP        -0.0087
     16 H           4.1553    2.1227    1.5315 H     1    ESP        -0.0092
     16 H           3.8638    2.4779    1.5315 H     1    ESP        -0.0096
     16 H           3.5086    2.7694    1.5315 H     1    ESP        -0.0098
     16 H           3.1033    2.9860    1.5315 H     1    ESP        -0.0098
     16 H           2.6636    3.1194    1.5315 H     1    ESP        -0.0097
     16 H           2.2063    3.1645    1.5315 H     1    ESP        -0.0095
     16 H           4.5053    0.3631    1.5315 H     1    ESP        -0.0056
     16 H           4.7704    0.8204    1.1247 H     1    ESP        -0.0071
     16 H           4.7292    1.2782    1.1247 H     1    ESP        -0.0081
     16 H           4.6069    1.7214    1.1247 H     1    ESP        -0.0088
     16 H           4.4075    2.1355    1.1247 H     1    ESP        -0.0094
     16 H           4.1373    2.5075    1.1247 H     1    ESP        -0.0098
     16 H           3.8050    2.8251    1.1247 H     1    ESP        -0.0100
     16 H           3.4213    3.0784    1.1247 H     1    ESP        -0.0101
     16 H           2.9986    3.2591    1.1247 H     1    ESP        -0.0101
     16 H           2.5505    3.3614    1.1247 H     1    ESP        -0.0099
     16 H           2.0912    3.3820    1.1247 H     1    ESP        -0.0096
     16 H           4.7292    0.3625    1.1247 H     1    ESP        -0.0059
     16 H           4.9206    0.8204    0.6874 H     1    ESP        -0.0073
     16 H           4.8815    1.2791    0.6874 H     1    ESP        -0.0083
     16 H           4.7655    1.7246    0.6874 H     1    ESP        -0.0090
     16 H           4.5759    2.1442    0.6874 H     1    ESP        -0.0095
     16 H           4.3181    2.5256    0.6874 H     1    ESP        -0.0099
     16 H           3.9995    2.8580    0.6874 H     1    ESP        -0.0102
     16 H           3.6294    3.1317    0.6874 H     1    ESP        -0.0103
     16 H           3.2183    3.3390    0.6874 H     1    ESP        -0.0103
     16 H           2.7781    3.4738    0.6874 H     1    ESP        -0.0102
     16 H           2.3215    3.5323    0.6874 H     1    ESP        -0.0099
     16 H           4.8815    0.3617    0.6874 H     1    ESP        -0.0061
     16 H           4.9967    0.8204    0.2312 H     1    ESP        -0.0074
     16 H           4.9586    1.2797    0.2312 H     1    ESP        -0.0083
     16 H           4.8455    1.7264    0.2312 H     1    ESP        -0.0090
     16 H           4.6604    2.1485    0.2312 H     1    ESP        -0.0096
     16 H           4.4083    2.5343    0.2312 H     1    ESP        -0.0100
     16 H           4.0962    2.8734    0.2312 H     1    ESP        -0.0102
     16 H           3.7325    3.1565    0.2312 H     1    ESP        -0.0104
     16 H           3.3272    3.3758    0.2312 H     1    ESP        -0.0104
     16 H           2.8913    3.5254    0.2312 H     1    ESP        -0.0103
     16 H           2.4367    3.6013    0.2312 H     1    ESP        -0.0100
     16 H           1.9758    3.6013    0.2312 H     1    ESP        -0.0096
     16 H           4.9586    0.3611    0.2312 H     1    ESP        -0.0062
     16 H           4.9967    0.8204   -0.2312 H     1    ESP        -0.0074
     16 H           4.9586    1.2797   -0.2312 H     1    ESP        -0.0083
     16 H           4.8455    1.7264   -0.2312 H     1    ESP        -0.0090
     16 H           4.6604    2.1485   -0.2312 H     1    ESP        -0.0096
     16 H           4.4083    2.5343   -0.2312 H     1    ESP        -0.0100
     16 H           4.0962    2.8734   -0.2312 H     1    ESP        -0.0102
     16 H           3.7325    3.1565   -0.2312 H     1    ESP        -0.0104
     16 H           3.3272    3.3758   -0.2312 H     1    ESP        -0.0104
     16 H           2.8913    3.5254   -0.2312 H     1    ESP        -0.0103
     16 H           2.4367    3.6013   -0.2312 H     1    ESP        -0.0100
     16 H           1.9758    3.6013   -0.2312 H     1    ESP        -0.0096
     16 H           4.9586    0.3611   -0.2312 H     1    ESP        -0.0062
     16 H           4.9206    0.8204   -0.6874 H     1    ESP        -0.0073
     16 H           4.8815    1.2791   -0.6874 H     1    ESP        -0.0083
     16 H           4.7655    1.7246   -0.6874 H     1    ESP        -0.0090
     16 H           4.5759    2.1442   -0.6874 H     1    ESP        -0.0095
     16 H           4.3181    2.5256   -0.6874 H     1    ESP        -0.0099
     16 H           3.9995    2.8580   -0.6874 H     1    ESP        -0.0102
     16 H           3.6294    3.1317   -0.6874 H     1    ESP        -0.0103
     16 H           3.2183    3.3390   -0.6874 H     1    ESP        -0.0103
     16 H           2.7781    3.4738   -0.6874 H     1    ESP        -0.0102
     16 H           2.3215    3.5323   -0.6874 H     1    ESP        -0.0099
     16 H           4.8815    0.3617   -0.6874 H     1    ESP        -0.0061
     16 H           4.7704    0.8204   -1.1247 H     1    ESP        -0.0071
     16 H           4.7292    1.2782   -1.1247 H     1    ESP        -0.0081
     16 H           4.6069    1.7214   -1.1247 H     1    ESP        -0.0088
     16 H           4.4075    2.1355   -1.1247 H     1    ESP        -0.0094
     16 H           4.1373    2.5075   -1.1247 H     1    ESP        -0.0098
     16 H           3.8050    2.8251   -1.1247 H     1    ESP        -0.0100
     16 H           3.4213    3.0784   -1.1247 H     1    ESP        -0.0101
     16 H           2.9986    3.2591   -1.1247 H     1    ESP        -0.0101
     16 H           2.5505    3.3614   -1.1247 H     1    ESP        -0.0099
     16 H           2.0912    3.3820   -1.1247 H     1    ESP        -0.0096
     16 H           4.7292    0.3625   -1.1247 H     1    ESP        -0.0059
     16 H           4.5503    0.8204   -1.5315 H     1    ESP        -0.0069
     16 H           4.5053    1.2777   -1.5315 H     1    ESP        -0.0079
     16 H           4.3719    1.7174   -1.5315 H     1    ESP        -0.0087
     16 H           4.1553    2.1227   -1.5315 H     1    ESP        -0.0092
     16 H           3.8638    2.4779   -1.5315 H     1    ESP        -0.0096
     16 H           3.5086    2.7694   -1.5315 H     1    ESP        -0.0098
     16 H           3.1033    2.9860   -1.5315 H     1    ESP        -0.0098
     16 H           2.6636    3.1194   -1.5315 H     1    ESP        -0.0097
     16 H           2.2063    3.1645   -1.5315 H     1    ESP        -0.0095
     16 H           4.5053    0.3631   -1.5315 H     1    ESP        -0.0056
     16 H           4.2663    0.8204   -1.8964 H     1    ESP        -0.0066
     16 H           4.2146    1.2788   -1.8964 H     1    ESP        -0.0076
     16 H           4.0623    1.7142   -1.8964 H     1    ESP        -0.0084
     16 H           3.8169    2.1048   -1.8964 H     1    ESP        -0.0089
     16 H           3.4907    2.4310   -1.8964 H     1    ESP        -0.0093
     16 H           3.1001    2.6764   -1.8964 H     1    ESP        -0.0094
     16 H           2.6647    2.8288   -1.8964 H     1    ESP        -0.0094
     16 H           2.2063    2.8804   -1.8964 H     1    ESP        -0.0092
     16 H           4.2146    0.3620   -1.8964 H     1    ESP        -0.0052
     16 H           3.9261    0.8204   -2.2096 H     1    ESP        -0.0062
     16 H           3.8623    1.2844   -2.2096 H     1    ESP        -0.0073
     16 H           3.6757    1.7140   -2.2096 H     1    ESP        -0.0081
     16 H           3.3801    2.0773   -2.2096 H     1    ESP        -0.0086
     16 H           2.9975    2.3474   -2.2096 H     1    ESP        -0.0088
     16 H           2.5562    2.5042   -2.2096 H     1    ESP        -0.0088
     16 H           2.0889    2.5362   -2.2096 H     1    ESP        -0.0086
     16 H           3.8623    0.3564   -2.2096 H     1    ESP        -0.0046
     16 H           3.5389    0.8204   -2.4625 H     1    ESP        -0.0058
     16 H           3.4585    1.2762   -2.4625 H     1    ESP        -0.0069
     16 H           3.2271    1.6770   -2.4625 H     1    ESP        -0.0077
     16 H           2.8726    1.9745   -2.4625 H     1    ESP        -0.0080
     16 H           2.4377    2.1328   -2.4625 H     1    ESP        -0.0081
     16 H           1.9748    2.1328   -2.4625 H     1    ESP        -0.0079
     16 H           3.4585    0.3646   -2.4625 H     1    ESP        -0.0041
     16 H           3.1154    0.8204   -2.6483 H     1    ESP        -0.0053
     16 H           2.9936    1.2750   -2.6483 H     1    ESP        -0.0065
     16 H           2.6608    1.6077   -2.6483 H     1    ESP        -0.0071
     16 H           2.2063    1.7295   -2.6483 H     1    ESP        -0.0071
     16 H           1.7517    1.6077   -2.6483 H     1    ESP        -0.0065
     16 H           2.9936    0.3658   -2.6483 H     1    ESP        -0.0034
     16 H           2.6671    0.8204   -2.7618 H     1    ESP        -0.0047
     16 H           2.4367    1.2195   -2.7618 H     1    ESP        -0.0058
     16 H           1.9758    1.2195   -2.7618 H     1    ESP        -0.0055
     16 H           2.2063    0.8204   -2.8000 H     1    ESP        -0.0043
     16 H          -3.8377    2.2047    1.9955 H     1    ESP         0.0030
     16 H          -4.1924    1.9071    1.9955 H     1    ESP         0.0034
     16 H          -4.4240    1.5060    1.9955 H     1    ESP         0.0036
     16 H          -4.5044    1.0500    1.9955 H     1    ESP         0.0036
     16 H          -3.7393    2.6491    1.6971 H     1    ESP         0.0031
     16 H          -4.1497    2.4364    1.6971 H     1    ESP         0.0035
     16 H          -4.4874    2.1210    1.6971 H     1    ESP         0.0037
     16 H          -4.7276    1.7261    1.6971 H     1    ESP         0.0039
     16 H          -4.8523    1.2811    1.6971 H     1    ESP         0.0040
     16 H          -4.8523    0.8189    1.6971 H     1    ESP         0.0041
     16 H          -4.7276    0.3739    1.6971 H     1    ESP         0.0041
     16 H          -3.7433    2.9617    1.3334 H     1    ESP         0.0034
     16 H          -4.1688    2.7782    1.3334 H     1    ESP         0.0036
     16 H          -4.5404    2.5015    1.3334 H     1    ESP         0.0039
     16 H          -4.8382    2.1466    1.3334 H     1    ESP         0.0040
     16 H          -5.0462    1.7325    1.3334 H     1    ESP         0.0042
     16 H          -5.1530    1.2817    1.3334 H     1    ESP         0.0043
     16 H          -5.1530    0.8183    1.3334 H     1    ESP         0.0044
     16 H          -5.0462    0.3675    1.3334 H     1    ESP         0.0045
     16 H          -3.8562    3.1588    0.9184 H     1    ESP         0.0036
     16 H          -4.2797    2.9702    0.9184 H     1    ESP         0.0038
     16 H          -4.6547    2.6978    0.9184 H     1    ESP         0.0040
     16 H          -4.9648    2.3533    0.9184 H     1    ESP         0.0042
     16 H          -5.1966    1.9519    0.9184 H     1    ESP         0.0043
     16 H          -5.3399    1.5110    0.9184 H     1    ESP         0.0044
     16 H          -5.3883    1.0500    0.9184 H     1    ESP         0.0045
     16 H          -5.3399    0.5890    0.9184 H     1    ESP         0.0047
     16 H          -5.1966    0.1481    0.9184 H     1    ESP         0.0049
     16 H          -3.6302    3.3586    0.4682 H     1    ESP         0.0036
     16 H          -4.0718    3.2247    0.4682 H     1    ESP         0.0038
     16 H          -4.4788    3.0072    0.4682 H     1    ESP         0.0040
     16 H          -4.8355    2.7144    0.4682 H     1    ESP         0.0042
     16 H          -5.1282    2.3577    0.4682 H     1    ESP         0.0043
     16 H          -5.3457    1.9508    0.4682 H     1    ESP         0.0044
     16 H          -5.4797    1.5092    0.4682 H     1    ESP         0.0045
     16 H          -5.5249    1.0500    0.4682 H     1    ESP         0.0046
     16 H          -5.4797    0.5908    0.4682 H     1    ESP         0.0048
     16 H          -5.3457    0.1492    0.4682 H     1    ESP         0.0051
     16 H          -5.1282   -0.2578    0.4682 H     1    ESP         0.0055
     16 H          -3.5126    3.4256    0.0000 H     1    ESP         0.0037
     16 H          -3.9560    3.3180    0.0000 H     1    ESP         0.0038
     16 H          -4.3710    3.1285    0.0000 H     1    ESP         0.0040
     16 H          -4.7427    2.8638    0.0000 H     1    ESP         0.0041
     16 H          -5.0575    2.5336    0.0000 H     1    ESP         0.0043
     16 H          -5.3042    2.1497    0.0000 H     1    ESP         0.0044
     16 H          -5.4738    1.7262    0.0000 H     1    ESP         0.0045
     16 H          -5.5601    1.2781    0.0000 H     1    ESP         0.0046
     16 H          -5.5601    0.8219    0.0000 H     1    ESP         0.0048
     16 H          -5.4738    0.3738    0.0000 H     1    ESP         0.0050
     16 H          -5.3042   -0.0498    0.0000 H     1    ESP         0.0053
     16 H          -3.6302    3.3586   -0.4682 H     1    ESP         0.0036
     16 H          -4.0718    3.2247   -0.4682 H     1    ESP         0.0038
     16 H          -4.4788    3.0072   -0.4682 H     1    ESP         0.0040
     16 H          -4.8355    2.7144   -0.4682 H     1    ESP         0.0042
     16 H          -5.1282    2.3577   -0.4682 H     1    ESP         0.0043
     16 H          -5.3457    1.9508   -0.4682 H     1    ESP         0.0044
     16 H          -5.4797    1.5092   -0.4682 H     1    ESP         0.0045
     16 H          -5.5249    1.0500   -0.4682 H     1    ESP         0.0046
     16 H          -5.4797    0.5908   -0.4682 H     1    ESP         0.0048
     16 H          -5.3457    0.1492   -0.4682 H     1    ESP         0.0051
     16 H          -5.1282   -0.2578   -0.4682 H     1    ESP         0.0055
     16 H          -3.8562    3.1588   -0.9184 H     1    ESP         0.0036
     16 H          -4.2797    2.9702   -0.9184 H     1    ESP         0.0038
     16 H          -4.6547    2.6978   -0.9184 H     1    ESP         0.0040
     16 H          -4.9648    2.3533   -0.9184 H     1    ESP         0.0042
     16 H          -5.1966    1.9519   -0.9184 H     1    ESP         0.0043
     16 H          -5.3399    1.5110   -0.9184 H     1    ESP         0.0044
     16 H          -5.3883    1.0500   -0.9184 H     1    ESP         0.0045
     16 H          -5.3399    0.5890   -0.9184 H     1    ESP         0.0047
     16 H          -5.1966    0.1481   -0.9184 H     1    ESP         0.0049
     16 H          -3.7433    2.9617   -1.3334 H     1    ESP         0.0034
     16 H          -4.1688    2.7782   -1.3334 H     1    ESP         0.0036
     16 H          -4.5404    2.5015   -1.3334 H     1    ESP         0.0039
     16 H          -4.8382    2.1466   -1.3334 H     1    ESP         0.0040
     16 H          -5.0462    1.7325   -1.3334 H     1    ESP         0.0042
     16 H          -5.1530    1.2817   -1.3334 H     1    ESP         0.0043
     16 H          -5.1530    0.8183   -1.3334 H     1    ESP         0.0044
     16 H          -5.0462    0.3675   -1.3334 H     1    ESP         0.0045
     16 H          -3.7393    2.6491   -1.6971 H     1    ESP         0.0031
     16 H          -4.1497    2.4364   -1.6971 H     1    ESP         0.0035
     16 H          -4.4874    2.1210   -1.6971 H     1    ESP         0.0037
     16 H          -4.7276    1.7261   -1.6971 H     1    ESP         0.0039
     16 H          -4.8523    1.2811   -1.6971 H     1    ESP         0.0040
     16 H          -4.8523    0.8189   -1.6971 H     1    ESP         0.0041
     16 H          -4.7276    0.3739   -1.6971 H     1    ESP         0.0041
     16 H          -3.8377    2.2047   -1.9955 H     1    ESP         0.0030
     16 H          -4.1924    1.9071   -1.9955 H     1    ESP         0.0034
     16 H          -4.4240    1.5060   -1.9955 H     1    ESP         0.0036
     16 H          -4.5044    1.0500   -1.9955 H     1    ESP         0.0036
     16 H          -4.3065   -1.5752    1.9955 H     1    ESP         0.0034
     16 H          -4.2261   -2.0313    1.9955 H     1    ESP         0.0035
     16 H          -3.9946   -2.4323    1.9955 H     1    ESP         0.0036
     16 H          -3.6399   -2.7300    1.9955 H     1    ESP         0.0036
     16 H          -3.2047   -2.8883    1.9955 H     1    ESP         0.0036
     16 H          -4.6544   -1.3441    1.6971 H     1    ESP         0.0038
     16 H          -4.6544   -1.8063    1.6971 H     1    ESP         0.0038
     16 H          -4.5297   -2.2513    1.6971 H     1    ESP         0.0038
     16 H          -4.2896   -2.6462    1.6971 H     1    ESP         0.0038
     16 H          -3.9518   -2.9617    1.6971 H     1    ESP         0.0039
     16 H          -3.5415   -3.1743    1.6971 H     1    ESP         0.0039
     16 H          -3.0890   -3.2683    1.6971 H     1    ESP         0.0041
     16 H          -4.8484   -0.8927    1.3334 H     1    ESP         0.0044
     16 H          -4.9552   -1.3436    1.3334 H     1    ESP         0.0041
     16 H          -4.9552   -1.8069    1.3334 H     1    ESP         0.0041
     16 H          -4.8484   -2.2577    1.3334 H     1    ESP         0.0040
     16 H          -4.6404   -2.6718    1.3334 H     1    ESP         0.0040
     16 H          -4.3426   -3.0267    1.3334 H     1    ESP         0.0041
     16 H          -3.9709   -3.3034    1.3334 H     1    ESP         0.0041
     16 H          -3.5455   -3.4869    1.3334 H     1    ESP         0.0042
     16 H          -3.0892   -3.5674    1.3334 H     1    ESP         0.0044
     16 H          -2.6267   -3.5404    1.3334 H     1    ESP         0.0048
     16 H          -4.9988   -0.6734    0.9184 H     1    ESP         0.0050
     16 H          -5.1420   -1.1142    0.9184 H     1    ESP         0.0045
     16 H          -5.1905   -1.5752    0.9184 H     1    ESP         0.0043
     16 H          -5.1420   -2.0362    0.9184 H     1    ESP         0.0042
     16 H          -4.9988   -2.4771    0.9184 H     1    ESP         0.0042
     16 H          -4.7670   -2.8785    0.9184 H     1    ESP         0.0042
     16 H          -4.4568   -3.2230    0.9184 H     1    ESP         0.0042
     16 H          -4.0818   -3.4955    0.9184 H     1    ESP         0.0043
     16 H          -3.6584   -3.6840    0.9184 H     1    ESP         0.0044
     16 H          -3.2049   -3.7804    0.9184 H     1    ESP         0.0046
     16 H          -2.7414   -3.7804    0.9184 H     1    ESP         0.0050
     16 H          -5.1479   -0.6744    0.4682 H     1    ESP         0.0052
     16 H          -5.2818   -1.1160    0.4682 H     1    ESP         0.0047
     16 H          -5.3271   -1.5752    0.4682 H     1    ESP         0.0044
     16 H          -5.2818   -2.0344    0.4682 H     1    ESP         0.0043
     16 H          -5.1479   -2.4760    0.4682 H     1    ESP         0.0042
     16 H          -4.9304   -2.8830    0.4682 H     1    ESP         0.0042
     16 H          -4.6376   -3.2397    0.4682 H     1    ESP         0.0043
     16 H          -4.2809   -3.5324    0.4682 H     1    ESP         0.0043
     16 H          -3.8740   -3.7499    0.4682 H     1    ESP         0.0044
     16 H          -3.4324   -3.8839    0.4682 H     1    ESP         0.0046
     16 H          -2.9732   -3.9291    0.4682 H     1    ESP         0.0050
     16 H          -2.5140   -3.8839    0.4682 H     1    ESP         0.0056
     16 H          -5.1064   -0.4755    0.0000 H     1    ESP         0.0058
     16 H          -5.2760   -0.8991    0.0000 H     1    ESP         0.0049
     16 H          -5.3623   -1.3471    0.0000 H     1    ESP         0.0046
     16 H          -5.3623   -1.8034    0.0000 H     1    ESP         0.0044
     16 H          -5.2760   -2.2514    0.0000 H     1    ESP         0.0043
     16 H          -5.1064   -2.6750    0.0000 H     1    ESP         0.0043
     16 H          -4.8597   -3.0588    0.0000 H     1    ESP         0.0043
     16 H          -4.5448   -3.3890    0.0000 H     1    ESP         0.0043
     16 H          -4.1732   -3.6537    0.0000 H     1    ESP         0.0044
     16 H          -3.7581   -3.8432    0.0000 H     1    ESP         0.0045
     16 H          -3.3147   -3.9508    0.0000 H     1    ESP         0.0047
     16 H          -2.8590   -3.9725    0.0000 H     1    ESP         0.0052
     16 H          -2.4074   -3.9076    0.0000 H     1    ESP         0.0059
     16 H          -5.1479   -0.6744   -0.4682 H     1    ESP         0.0052
     16 H          -5.2818   -1.1160   -0.4682 H     1    ESP         0.0047
     16 H          -5.3271   -1.5752   -0.4682 H     1    ESP         0.0044
     16 H          -5.2818   -2.0344   -0.4682 H     1    ESP         0.0043
     16 H          -5.1479   -2.4760   -0.4682 H     1    ESP         0.0042
     16 H          -4.9304   -2.8830   -0.4682 H     1    ESP         0.0042
     16 H          -4.6376   -3.2397   -0.4682 H     1    ESP         0.0043
     16 H          -4.2809   -3.5324   -0.4682 H     1    ESP         0.0043
     16 H          -3.8740   -3.7499   -0.4682 H     1    ESP         0.0044
     16 H          -3.4324   -3.8839   -0.4682 H     1    ESP         0.0046
     16 H          -2.9732   -3.9291   -0.4682 H     1    ESP         0.0050
     16 H          -2.5140   -3.8839   -0.4682 H     1    ESP         0.0056
     16 H          -4.9988   -0.6734   -0.9184 H     1    ESP         0.0050
     16 H          -5.1420   -1.1142   -0.9184 H     1    ESP         0.0045
     16 H          -5.1905   -1.5752   -0.9184 H     1    ESP         0.0043
     16 H          -5.1420   -2.0362   -0.9184 H     1    ESP         0.0042
     16 H          -4.9988   -2.4771   -0.9184 H     1    ESP         0.0042
     16 H          -4.7670   -2.8785   -0.9184 H     1    ESP         0.0042
     16 H          -4.4568   -3.2230   -0.9184 H     1    ESP         0.0042
     16 H          -4.0818   -3.4955   -0.9184 H     1    ESP         0.0043
     16 H          -3.6584   -3.6840   -0.9184 H     1    ESP         0.0044
     16 H          -3.2049   -3.7804   -0.9184 H     1    ESP         0.0046
     16 H          -2.7414   -3.7804   -0.9184 H     1    ESP         0.0050
     16 H          -4.8484   -0.8927   -1.3334 H     1    ESP         0.0044
     16 H          -4.9552   -1.3436   -1.3334 H     1    ESP         0.0041
     16 H          -4.9552   -1.8069   -1.3334 H     1    ESP         0.0041
     16 H          -4.8484   -2.2577   -1.3334 H     1    ESP         0.0040
     16 H          -4.6404   -2.6718   -1.3334 H     1    ESP         0.0040
     16 H          -4.3426   -3.0267   -1.3334 H     1    ESP         0.0041
     16 H          -3.9709   -3.3034   -1.3334 H     1    ESP         0.0041
     16 H          -3.5455   -3.4869   -1.3334 H     1    ESP         0.0042
     16 H          -3.0892   -3.5674   -1.3334 H     1    ESP         0.0044
     16 H          -2.6267   -3.5404   -1.3334 H     1    ESP         0.0048
     16 H          -4.6544   -1.3441   -1.6971 H     1    ESP         0.0038
     16 H          -4.6544   -1.8063   -1.6971 H     1    ESP         0.0038
     16 H          -4.5297   -2.2513   -1.6971 H     1    ESP         0.0038
     16 H          -4.2896   -2.6462   -1.6971 H     1    ESP         0.0038
     16 H          -3.9518   -2.9617   -1.6971 H     1    ESP         0.0039
     16 H          -3.5415   -3.1743   -1.6971 H     1    ESP         0.0039
     16 H          -3.0890   -3.2683   -1.6971 H     1    ESP         0.0041
     16 H          -4.3065   -1.5752   -1.9955 H     1    ESP         0.0034
     16 H          -4.2261   -2.0313   -1.9955 H     1    ESP         0.0035
     16 H          -3.9946   -2.4323   -1.9955 H     1    ESP         0.0036
     16 H          -3.6399   -2.7300   -1.9955 H     1    ESP         0.0036
     16 H          -3.2047   -2.8883   -1.9955 H     1    ESP         0.0036
     16 H          -0.6975   -3.6624    1.9955 H     1    ESP         0.0048
     16 H          -0.2344   -3.6624    1.9955 H     1    ESP         0.0052
     16 H           0.2007   -3.5040    1.9955 H     1    ESP         0.0056
     16 H           0.5555   -3.2064    1.9955 H     1    ESP         0.0062
     16 H          -1.4446   -3.7357    1.6971 H     1    ESP         0.0048
     16 H          -1.0343   -3.9484    1.6971 H     1    ESP         0.0049
     16 H          -0.5818   -4.0424    1.6971 H     1    ESP         0.0052
     16 H          -0.1207   -4.0108    1.6971 H     1    ESP         0.0054
     16 H           0.3148   -3.8561    1.6971 H     1    ESP         0.0059
     16 H          -1.8354   -3.8008    1.3334 H     1    ESP         0.0051
     16 H          -1.4637   -4.0775    1.3334 H     1    ESP         0.0051
     16 H          -1.0383   -4.2610    1.3334 H     1    ESP         0.0052
     16 H          -0.5820   -4.3414    1.3334 H     1    ESP         0.0053
     16 H          -0.1194   -4.3145    1.3334 H     1    ESP         0.0056
     16 H           0.3244   -4.1816    1.3334 H     1    ESP         0.0060
     16 H          -1.9496   -3.9971    0.9184 H     1    ESP         0.0054
     16 H          -1.5746   -4.2695    0.9184 H     1    ESP         0.0053
     16 H          -1.1511   -4.4581    0.9184 H     1    ESP         0.0053
     16 H          -0.6977   -4.5544    0.9184 H     1    ESP         0.0054
     16 H          -0.2342   -4.5544    0.9184 H     1    ESP         0.0056
     16 H           0.2192   -4.4581    0.9184 H     1    ESP         0.0059
     16 H          -2.1304   -4.0137    0.4682 H     1    ESP         0.0058
     16 H          -1.7737   -4.3065    0.4682 H     1    ESP         0.0054
     16 H          -1.3667   -4.5240    0.4682 H     1    ESP         0.0053
     16 H          -0.9252   -4.6579    0.4682 H     1    ESP         0.0054
     16 H          -0.4660   -4.7032    0.4682 H     1    ESP         0.0055
     16 H          -0.0067   -4.6579    0.4682 H     1    ESP         0.0058
     16 H           0.4348   -4.5240    0.4682 H     1    ESP         0.0062
     16 H          -2.0376   -4.1631    0.0000 H     1    ESP         0.0057
     16 H          -1.6660   -4.4277    0.0000 H     1    ESP         0.0054
     16 H          -1.2509   -4.6173    0.0000 H     1    ESP         0.0054
     16 H          -0.8075   -4.7249    0.0000 H     1    ESP         0.0054
     16 H          -0.3518   -4.7466    0.0000 H     1    ESP         0.0056
     16 H           0.0999   -4.6816    0.0000 H     1    ESP         0.0059
     16 H          -2.1304   -4.0137   -0.4682 H     1    ESP         0.0058
     16 H          -1.7737   -4.3065   -0.4682 H     1    ESP         0.0054
     16 H          -1.3667   -4.5240   -0.4682 H     1    ESP         0.0053
     16 H          -0.9252   -4.6579   -0.4682 H     1    ESP         0.0054
     16 H          -0.4660   -4.7032   -0.4682 H     1    ESP         0.0055
     16 H          -0.0067   -4.6579   -0.4682 H     1    ESP         0.0058
     16 H           0.4348   -4.5240   -0.4682 H     1    ESP         0.0062
     16 H          -1.9496   -3.9971   -0.9184 H     1    ESP         0.0054
     16 H          -1.5746   -4.2695   -0.9184 H     1    ESP         0.0053
     16 H          -1.1511   -4.4581   -0.9184 H     1    ESP         0.0053
     16 H          -0.6977   -4.5544   -0.9184 H     1    ESP         0.0054
     16 H          -0.2342   -4.5544   -0.9184 H     1    ESP         0.0056
     16 H           0.2192   -4.4581   -0.9184 H     1    ESP         0.0059
     16 H          -1.8354   -3.8008   -1.3334 H     1    ESP         0.0051
     16 H          -1.4637   -4.0775   -1.3334 H     1    ESP         0.0051
     16 H          -1.0383   -4.2610   -1.3334 H     1    ESP         0.0052
     16 H          -0.5820   -4.3414   -1.3334 H     1    ESP         0.0053
     16 H          -0.1194   -4.3145   -1.3334 H     1    ESP         0.0056
     16 H           0.3244   -4.1816   -1.3334 H     1    ESP         0.0060
     16 H          -1.4446   -3.7357   -1.6971 H     1    ESP         0.0048
     16 H          -1.0343   -3.9484   -1.6971 H     1    ESP         0.0049
     16 H          -0.5818   -4.0424   -1.6971 H     1    ESP         0.0052
     16 H          -0.1207   -4.0108   -1.6971 H     1    ESP         0.0054
     16 H           0.3148   -3.8561   -1.6971 H     1    ESP         0.0059
     16 H          -0.6975   -3.6624   -1.9955 H     1    ESP         0.0048
     16 H          -0.2344   -3.6624   -1.9955 H     1    ESP         0.0052
     16 H           0.2007   -3.5040   -1.9955 H     1    ESP         0.0056
     16 H           0.5555   -3.2064   -1.9955 H     1    ESP         0.0062
     16 H           0.6905   -3.3047    1.9955 H     1    ESP         0.0059
     16 H           1.0452   -3.6023    1.9955 H     1    ESP         0.0051
     16 H           1.4804   -3.7607    1.9955 H     1    ESP         0.0045
     16 H           0.7333   -3.8341    1.6971 H     1    ESP         0.0057
     16 H           1.1436   -4.0467    1.6971 H     1    ESP         0.0048
     16 H           1.5961   -4.1407    1.6971 H     1    ESP         0.0043
     16 H           2.0572   -4.1092    1.6971 H     1    ESP         0.0039
     16 H           0.7142   -4.1758    1.3334 H     1    ESP         0.0057
     16 H           1.1396   -4.3593    1.3334 H     1    ESP         0.0048
     16 H           1.5959   -4.4398    1.3334 H     1    ESP         0.0042
     16 H           2.0584   -4.4128    1.3334 H     1    ESP         0.0038
     16 H           2.5023   -4.2799    1.3334 H     1    ESP         0.0036
     16 H           0.6033   -4.3679    0.9184 H     1    ESP         0.0060
     16 H           1.0267   -4.5564    0.9184 H     1    ESP         0.0049
     16 H           1.4802   -4.6528    0.9184 H     1    ESP         0.0043
     16 H           1.9437   -4.6528    0.9184 H     1    ESP         0.0038
     16 H           2.3971   -4.5564    0.9184 H     1    ESP         0.0035
     16 H           0.8111   -4.6223    0.4682 H     1    ESP         0.0054
     16 H           1.2527   -4.7563    0.4682 H     1    ESP         0.0045
     16 H           1.7119   -4.8015    0.4682 H     1    ESP         0.0040
     16 H           2.1711   -4.7563    0.4682 H     1    ESP         0.0036
     16 H           2.6127   -4.6223    0.4682 H     1    ESP         0.0034
     16 H           0.9270   -4.7156    0.0000 H     1    ESP         0.0051
     16 H           1.3704   -4.8232    0.0000 H     1    ESP         0.0044
     16 H           1.8261   -4.8449    0.0000 H     1    ESP         0.0039
     16 H           2.2777   -4.7800    0.0000 H     1    ESP         0.0035
     16 H           2.7089   -4.6307    0.0000 H     1    ESP         0.0033
     16 H           0.8111   -4.6223   -0.4682 H     1    ESP         0.0054
     16 H           1.2527   -4.7563   -0.4682 H     1    ESP         0.0045
     16 H           1.7119   -4.8015   -0.4682 H     1    ESP         0.0040
     16 H           2.1711   -4.7563   -0.4682 H     1    ESP         0.0036
     16 H           2.6127   -4.6223   -0.4682 H     1    ESP         0.0034
     16 H           0.6033   -4.3679   -0.9184 H     1    ESP         0.0060
     16 H           1.0267   -4.5564   -0.9184 H     1    ESP         0.0049
     16 H           1.4802   -4.6528   -0.9184 H     1    ESP         0.0043
     16 H           1.9437   -4.6528   -0.9184 H     1    ESP         0.0038
     16 H           2.3971   -4.5564   -0.9184 H     1    ESP         0.0035
     16 H           0.7142   -4.1758   -1.3334 H     1    ESP         0.0057
     16 H           1.1396   -4.3593   -1.3334 H     1    ESP         0.0048
     16 H           1.5959   -4.4398   -1.3334 H     1    ESP         0.0042
     16 H           2.0584   -4.4128   -1.3334 H     1    ESP         0.0038
     16 H           2.5023   -4.2799   -1.3334 H     1    ESP         0.0036
     16 H           0.7333   -3.8341   -1.6971 H     1    ESP         0.0057
     16 H           1.1436   -4.0467   -1.6971 H     1    ESP         0.0048
     16 H           1.5961   -4.1407   -1.6971 H     1    ESP         0.0043
     16 H           2.0572   -4.1092   -1.6971 H     1    ESP         0.0039
     16 H           0.6905   -3.3047   -1.9955 H     1    ESP         0.0059
     16 H           1.0452   -3.6023   -1.9955 H     1    ESP         0.0051
     16 H           1.4804   -3.7607   -1.9955 H     1    ESP         0.0045
     16 H           5.3502   -1.5849   -0.4133 H     1    ESP         0.0004
     16 H           5.3049   -1.1257   -0.4133 H     1    ESP        -0.0004
     16 H           5.1710   -2.4857   -0.4133 H     1    ESP         0.0014
     16 H           5.3049   -2.0441   -0.4133 H     1    ESP         0.0009
     16 H           5.3963   -1.5849   -0.8815 H     1    ESP         0.0003
     16 H           5.3529   -1.1307   -0.8815 H     1    ESP        -0.0003
     16 H           5.2244   -0.6929   -0.8815 H     1    ESP        -0.0013
     16 H           5.0153   -0.2873   -0.8815 H     1    ESP        -0.0028
     16 H           4.7333   -3.2411   -0.8815 H     1    ESP         0.0019
     16 H           5.0153   -2.8824   -0.8815 H     1    ESP         0.0016
     16 H           5.2244   -2.4769   -0.8815 H     1    ESP         0.0012
     16 H           5.3529   -2.0391   -0.8815 H     1    ESP         0.0008
     16 H           5.3502   -1.5849   -1.3497 H     1    ESP         0.0004
     16 H           5.3049   -1.1257   -1.3497 H     1    ESP        -0.0002
     16 H           5.1710   -0.6841   -1.3497 H     1    ESP        -0.0011
     16 H           4.9535   -0.2771   -1.3497 H     1    ESP        -0.0024
     16 H           4.6607    0.0796   -1.3497 H     1    ESP        -0.0043
     16 H           3.8971   -3.7596   -1.3497 H     1    ESP         0.0025
     16 H           4.3040   -3.5421   -1.3497 H     1    ESP         0.0021
     16 H           4.6607   -3.2493   -1.3497 H     1    ESP         0.0018
     16 H           4.9535   -2.8926   -1.3497 H     1    ESP         0.0015
     16 H           5.1710   -2.4857   -1.3497 H     1    ESP         0.0012
     16 H           5.3049   -2.0441   -1.3497 H     1    ESP         0.0008
     16 H           5.2136   -1.5849   -1.7999 H     1    ESP         0.0004
     16 H           5.1651   -1.1239   -1.7999 H     1    ESP        -0.0001
     16 H           5.0219   -0.6830   -1.7999 H     1    ESP        -0.0009
     16 H           4.7901   -0.2816   -1.7999 H     1    ESP        -0.0020
     16 H           4.4800    0.0629   -1.7999 H     1    ESP        -0.0036
     16 H           3.6815   -3.6937   -1.7999 H     1    ESP         0.0025
     16 H           4.1049   -3.5051   -1.7999 H     1    ESP         0.0021
     16 H           4.4800   -3.2327   -1.7999 H     1    ESP         0.0018
     16 H           4.7901   -2.8882   -1.7999 H     1    ESP         0.0015
     16 H           5.0219   -2.4867   -1.7999 H     1    ESP         0.0012
     16 H           5.1651   -2.0459   -1.7999 H     1    ESP         0.0009
     16 H           4.9918   -1.5849   -2.2149 H     1    ESP         0.0005
     16 H           4.9380   -1.1247   -2.2149 H     1    ESP         0.0000
     16 H           4.7796   -0.6893   -2.2149 H     1    ESP        -0.0007
     16 H           4.5250   -0.3022   -2.2149 H     1    ESP        -0.0016
     16 H           4.1879    0.0158   -2.2149 H     1    ESP        -0.0028
     16 H           2.8803   -3.5770   -2.2149 H     1    ESP         0.0031
     16 H           3.3428   -3.5501   -2.2149 H     1    ESP         0.0026
     16 H           3.7867   -3.4172   -2.2149 H     1    ESP         0.0022
     16 H           4.1879   -3.1855   -2.2149 H     1    ESP         0.0019
     16 H           4.5250   -2.8676   -2.2149 H     1    ESP         0.0016
     16 H           4.7796   -2.4805   -2.2149 H     1    ESP         0.0013
     16 H           4.9380   -2.0451   -2.2149 H     1    ESP         0.0009
     16 H           4.6933   -1.5849   -2.5785 H     1    ESP         0.0007
     16 H           4.6304   -1.1270   -2.5785 H     1    ESP         0.0002
     16 H           4.4463   -0.7031   -2.5785 H     1    ESP        -0.0004
     16 H           4.1546   -0.3446   -2.5785 H     1    ESP        -0.0011
     16 H           3.7770   -0.0781   -2.5785 H     1    ESP        -0.0019
     16 H           3.3416    0.0767   -2.5785 H     1    ESP        -0.0024
     16 H           2.4280   -3.1840   -2.5785 H     1    ESP         0.0033
     16 H           2.8805   -3.2780   -2.5785 H     1    ESP         0.0028
     16 H           3.3416   -3.2464   -2.5785 H     1    ESP         0.0024
     16 H           3.7770   -3.0917   -2.5785 H     1    ESP         0.0020
     16 H           4.1546   -2.8252   -2.5785 H     1    ESP         0.0017
     16 H           4.4463   -2.4666   -2.5785 H     1    ESP         0.0014
     16 H           4.6304   -2.0427   -2.5785 H     1    ESP         0.0011
     16 H           4.3297   -1.5849   -2.8770 H     1    ESP         0.0008
     16 H           4.2492   -1.1288   -2.8770 H     1    ESP         0.0004
     16 H           4.0177   -0.7278   -2.8770 H     1    ESP        -0.0001
     16 H           3.6630   -0.4302   -2.8770 H     1    ESP        -0.0005
     16 H           3.2278   -0.2718   -2.8770 H     1    ESP        -0.0006
     16 H           2.7648   -0.2718   -2.8770 H     1    ESP        -0.0000
     16 H           1.9749   -2.4420   -2.8770 H     1    ESP         0.0036
     16 H           2.3296   -2.7396   -2.8770 H     1    ESP         0.0032
     16 H           2.7648   -2.8980   -2.8770 H     1    ESP         0.0027
     16 H           3.2278   -2.8980   -2.8770 H     1    ESP         0.0023
     16 H           3.6630   -2.7396   -2.8770 H     1    ESP         0.0019
     16 H           4.0177   -2.4420   -2.8770 H     1    ESP         0.0016
     16 H           4.2492   -2.0409   -2.8770 H     1    ESP         0.0012
     16 H           3.9147   -1.5849   -3.0988 H     1    ESP         0.0011
     16 H           3.7917   -1.1257   -3.0988 H     1    ESP         0.0007
     16 H           3.4555   -0.7895   -3.0988 H     1    ESP         0.0004
     16 H           2.9963   -0.6664   -3.0988 H     1    ESP         0.0007
     16 H           2.5371   -0.7895   -3.0988 H     1    ESP         0.0014
     16 H           2.2009   -1.1257   -3.0988 H     1    ESP         0.0024
     16 H           2.0779   -1.5849   -3.0988 H     1    ESP         0.0029
     16 H           2.2009   -2.0441   -3.0988 H     1    ESP         0.0030
     16 H           2.5371   -2.3803   -3.0988 H     1    ESP         0.0027
     16 H           2.9963   -2.5033   -3.0988 H     1    ESP         0.0023
     16 H           3.4555   -2.3803   -3.0988 H     1    ESP         0.0019
     16 H           3.7917   -2.0441   -3.0988 H     1    ESP         0.0015
     16 H           3.4645   -1.5849   -3.2354 H     1    ESP         0.0013
     16 H           3.2304   -1.1794   -3.2354 H     1    ESP         0.0012
     16 H           2.7622   -1.1794   -3.2354 H     1    ESP         0.0016
     16 H           2.5281   -1.5849   -3.2354 H     1    ESP         0.0022
     16 H           2.7622   -1.9904   -3.2354 H     1    ESP         0.0022
     16 H           3.2304   -1.9904   -3.2354 H     1    ESP         0.0018
     16 H           2.9963   -1.5849   -3.2815 H     1    ESP         0.0017
     16 H           2.9963   -1.5849    3.2815 H     1    ESP         0.0017
     16 H           3.4645   -1.5849    3.2354 H     1    ESP         0.0013
     16 H           3.2304   -1.1794    3.2354 H     1    ESP         0.0012
     16 H           2.7622   -1.1794    3.2354 H     1    ESP         0.0016
     16 H           2.5281   -1.5849    3.2354 H     1    ESP         0.0022
     16 H           2.7622   -1.9904    3.2354 H     1    ESP         0.0022
     16 H           3.2304   -1.9904    3.2354 H     1    ESP         0.0018
     16 H           3.9147   -1.5849    3.0988 H     1    ESP         0.0011
     16 H           3.7917   -1.1257    3.0988 H     1    ESP         0.0007
     16 H           3.4555   -0.7895    3.0988 H     1    ESP         0.0004
     16 H           2.9963   -0.6664    3.0988 H     1    ESP         0.0007
     16 H           2.5371   -0.7895    3.0988 H     1    ESP         0.0014
     16 H           2.2009   -1.1257    3.0988 H     1    ESP         0.0024
     16 H           2.0779   -1.5849    3.0988 H     1    ESP         0.0029
     16 H           2.2009   -2.0441    3.0988 H     1    ESP         0.0030
     16 H           2.5371   -2.3803    3.0988 H     1    ESP         0.0027
     16 H           2.9963   -2.5033    3.0988 H     1    ESP         0.0023
     16 H           3.4555   -2.3803    3.0988 H     1    ESP         0.0019
     16 H           3.7917   -2.0441    3.0988 H     1    ESP         0.0015
     16 H           4.3297   -1.5849    2.8770 H     1    ESP         0.0008
     16 H           4.2492   -1.1288    2.8770 H     1    ESP         0.0004
     16 H           4.0177   -0.7278    2.8770 H     1    ESP        -0.0001
     16 H           3.6630   -0.4302    2.8770 H     1    ESP        -0.0005
     16 H           3.2278   -0.2718    2.8770 H     1    ESP        -0.0006
     16 H           2.7648   -0.2718    2.8770 H     1    ESP        -0.0000
     16 H           1.9749   -2.4420    2.8770 H     1    ESP         0.0036
     16 H           2.3296   -2.7396    2.8770 H     1    ESP         0.0032
     16 H           2.7648   -2.8980    2.8770 H     1    ESP         0.0027
     16 H           3.2278   -2.8980    2.8770 H     1    ESP         0.0023
     16 H           3.6630   -2.7396    2.8770 H     1    ESP         0.0019
     16 H           4.0177   -2.4420    2.8770 H     1    ESP         0.0016
     16 H           4.2492   -2.0409    2.8770 H     1    ESP         0.0012
     16 H           4.6933   -1.5849    2.5785 H     1    ESP         0.0007
     16 H           4.6304   -1.1270    2.5785 H     1    ESP         0.0002
     16 H           4.4463   -0.7031    2.5785 H     1    ESP        -0.0004
     16 H           4.1546   -0.3446    2.5785 H     1    ESP        -0.0011
     16 H           3.7770   -0.0781    2.5785 H     1    ESP        -0.0019
     16 H           3.3416    0.0767    2.5785 H     1    ESP        -0.0024
     16 H           2.4280   -3.1840    2.5785 H     1    ESP         0.0033
     16 H           2.8805   -3.2780    2.5785 H     1    ESP         0.0028
     16 H           3.3416   -3.2464    2.5785 H     1    ESP         0.0024
     16 H           3.7770   -3.0917    2.5785 H     1    ESP         0.0020
     16 H           4.1546   -2.8252    2.5785 H     1    ESP         0.0017
     16 H           4.4463   -2.4666    2.5785 H     1    ESP         0.0014
     16 H           4.6304   -2.0427    2.5785 H     1    ESP         0.0011
     16 H           4.9918   -1.5849    2.2149 H     1    ESP         0.0005
     16 H           4.9380   -1.1247    2.2149 H     1    ESP         0.0000
     16 H           4.7796   -0.6893    2.2149 H     1    ESP        -0.0007
     16 H           4.5250   -0.3022    2.2149 H     1    ESP        -0.0016
     16 H           4.1879    0.0158    2.2149 H     1    ESP        -0.0028
     16 H           2.8803   -3.5770    2.2149 H     1    ESP         0.0031
     16 H           3.3428   -3.5501    2.2149 H     1    ESP         0.0026
     16 H           3.7867   -3.4172    2.2149 H     1    ESP         0.0022
     16 H           4.1879   -3.1855    2.2149 H     1    ESP         0.0019
     16 H           4.5250   -2.8676    2.2149 H     1    ESP         0.0016
     16 H           4.7796   -2.4805    2.2149 H     1    ESP         0.0013
     16 H           4.9380   -2.0451    2.2149 H     1    ESP         0.0009
     16 H           5.2136   -1.5849    1.7999 H     1    ESP         0.0004
     16 H           5.1651   -1.1239    1.7999 H     1    ESP        -0.0001
     16 H           5.0219   -0.6830    1.7999 H     1    ESP        -0.0009
     16 H           4.7901   -0.2816    1.7999 H     1    ESP        -0.0020
     16 H           4.4800    0.0629    1.7999 H     1    ESP        -0.0036
     16 H           3.6815   -3.6937    1.7999 H     1    ESP         0.0025
     16 H           4.1049   -3.5051    1.7999 H     1    ESP         0.0021
     16 H           4.4800   -3.2327    1.7999 H     1    ESP         0.0018
     16 H           4.7901   -2.8882    1.7999 H     1    ESP         0.0015
     16 H           5.0219   -2.4867    1.7999 H     1    ESP         0.0012
     16 H           5.1651   -2.0459    1.7999 H     1    ESP         0.0009
     16 H           5.3502   -1.5849    1.3497 H     1    ESP         0.0004
     16 H           5.3049   -1.1257    1.3497 H     1    ESP        -0.0002
     16 H           5.1710   -0.6841    1.3497 H     1    ESP        -0.0011
     16 H           4.9535   -0.2771    1.3497 H     1    ESP        -0.0024
     16 H           4.6607    0.0796    1.3497 H     1    ESP        -0.0043
     16 H           3.8971   -3.7596    1.3497 H     1    ESP         0.0025
     16 H           4.3040   -3.5421    1.3497 H     1    ESP         0.0021
     16 H           4.6607   -3.2493    1.3497 H     1    ESP         0.0018
     16 H           4.9535   -2.8926    1.3497 H     1    ESP         0.0015
     16 H           5.1710   -2.4857    1.3497 H     1    ESP         0.0012
     16 H           5.3049   -2.0441    1.3497 H     1    ESP         0.0008
     16 H           5.3963   -1.5849    0.8815 H     1    ESP         0.0003
     16 H           5.3529   -1.1307    0.8815 H     1    ESP        -0.0003
     16 H           5.2244   -0.6929    0.8815 H     1    ESP        -0.0013
     16 H           5.0153   -0.2873    0.8815 H     1    ESP        -0.0028
     16 H           4.7333   -3.2411    0.8815 H     1    ESP         0.0019
     16 H           5.0153   -2.8824    0.8815 H     1    ESP         0.0016
     16 H           5.2244   -2.4769    0.8815 H     1    ESP         0.0012
     16 H           5.3529   -2.0391    0.8815 H     1    ESP         0.0008
     16 H           5.3502   -1.5849    0.4133 H     1    ESP         0.0004
     16 H           5.3049   -1.1257    0.4133 H     1    ESP        -0.0004
     16 H           5.1710   -2.4857    0.4133 H     1    ESP         0.0014
     16 H           5.3049   -2.0441    0.4133 H     1    ESP         0.0009
