@<TRIPOS>MOLECULE
SCCO
 16 14 1
SMALL
USER_CHARGES


@<TRIPOS>ATOM
      1 S1         -0.8694    1.5007    0.0000 S.3   1    UNL        -0.0302
      2 C2         -2.3770    0.6432   -0.0000 C.2   1    UNL        -0.1140
      3 C3         -2.1990   -0.7345    0.0000 C.2   1    UNL        -0.2281
      4 C4         -0.8484   -1.0999    0.0000 C.2   1    UNL        -0.0781
      5 C5          0.0000    0.0000    0.0000 C.2   1    UNL        -0.1536
      6 C6          1.5000    0.0000    0.0000 C.2   1    UNL         0.6827
      7 C7          2.1478   -1.3529    0.0000 C.3   1    UNL        -0.6523
      8 O8          2.1550    1.0399   -0.0000 O.2   1    UNL        -0.4891
      9 H9         -3.3112    1.1888   -0.0000 H     1    UNL         0.1795
     10 H10        -3.0140   -1.4466   -0.0000 H     1    UNL         0.1675
     11 H11        -0.5038   -2.1259    0.0000 H     1    UNL         0.1447
     12 H12         1.3779   -2.1244    0.0000 H     1    UNL         0.1746
     13 H13         2.7682   -1.4587   -0.8900 H     1    UNL         0.1746
     14 H14         2.7682   -1.4587    0.8900 H     1    UNL         0.1746
     15 DLP1        0.3367    2.1867    0.0000 Du    1    UNL         0.0236
     16 DLP2       -1.5649    2.7013    0.0000 Du    1    UNL         0.0236
@<TRIPOS>BOND
     1    1    2 1    
     2    1    5 1    
     3    2    3 2    
     4    2    9 1    
     5    3    4 1    
     6    3   10 1    
     7    4    5 2    
     8    4   11 1    
     9    5    6 1    
    10    6    7 1    
    11    6    8 2    
    12    7   12 1    
    13    7   13 1    
    14    7   14 1    
@<TRIPOS>SUBSTRUCTURE
     1 UNK         1 GROUP             0       ****    0 ROOT    
