@<TRIPOS>MOLECULE
SCCO_esp.mol2
 4336 0 1
SMALL
USER_CHARGES
@<TRIPOS>ATOM
      1 H          -0.7265    1.2774    2.4500 H     1    ESP        -0.0122
      2 H          -0.2763    1.2774    2.4083 H     1    ESP        -0.0134
      3 H          -0.5014    1.6673    2.4083 H     1    ESP        -0.0135
      4 H          -0.9516    1.6673    2.4083 H     1    ESP        -0.0117
      5 H          -1.1767    1.2774    2.4083 H     1    ESP        -0.0106
      6 H          -0.9516    0.8875    2.4083 H     1    ESP        -0.0109
      7 H          -0.5014    0.8875    2.4083 H     1    ESP        -0.0119
      8 H           0.1585    1.2774    2.2846 H     1    ESP        -0.0142
      9 H           0.0400    1.7199    2.2846 H     1    ESP        -0.0154
     10 H          -0.2840    2.0439    2.2846 H     1    ESP        -0.0147
     11 H          -0.7265    2.1624    2.2846 H     1    ESP        -0.0126
     12 H          -1.1690    2.0439    2.2846 H     1    ESP        -0.0100
     13 H          -1.4930    1.7199    2.2846 H     1    ESP        -0.0084
     14 H          -1.6115    1.2774    2.2846 H     1    ESP        -0.0087
     15 H          -1.4930    0.8349    2.2846 H     1    ESP        -0.0097
     16 H          -1.1690    0.5109    2.2846 H     1    ESP        -0.0099
     17 H          -0.7265    0.3924    2.2846 H     1    ESP        -0.0102
     18 H          -0.2840    0.5109    2.2846 H     1    ESP        -0.0112
     19 H           0.0400    0.8349    2.2846 H     1    ESP        -0.0123
     20 H           0.5633    1.2774    2.0830 H     1    ESP        -0.0152
     21 H           0.4762    1.7433    2.0830 H     1    ESP        -0.0172
     22 H           0.2267    2.1463    2.0830 H     1    ESP        -0.0170
     23 H          -0.1516    2.4319    2.0830 H     1    ESP        -0.0154
     24 H          -0.6075    2.5616    2.0830 H     1    ESP        -0.0127
     25 H          -1.0795    2.5179    2.0830 H     1    ESP        -0.0094
     26 H          -1.5037    2.3066    2.0830 H     1    ESP        -0.0062
     27 H          -1.8231    1.9564    2.0830 H     1    ESP        -0.0044
     28 H          -1.9943    1.5144    2.0830 H     1    ESP        -0.0050
     29 H          -1.9943    1.0404    2.0830 H     1    ESP        -0.0075
     30 H          -1.8231    0.5984    2.0830 H     1    ESP        -0.0098
     31 H          -1.5037    0.2481    2.0830 H     1    ESP        -0.0100
     32 H          -1.0795    0.0369    2.0830 H     1    ESP        -0.0092
     33 H          -0.6075   -0.0069    2.0830 H     1    ESP        -0.0099
     34 H          -0.1516    0.1228    2.0830 H     1    ESP        -0.0105
     35 H           0.2267    0.4085    2.0830 H     1    ESP        -0.0103
     36 H           0.4762    0.8115    2.0830 H     1    ESP        -0.0119
     37 H           0.9241    1.2774    1.8106 H     1    ESP        -0.0179
     38 H           0.8572    1.7424    1.8106 H     1    ESP        -0.0208
     39 H           0.6620    2.1697    1.8106 H     1    ESP        -0.0202
     40 H           0.3544    2.5248    1.8106 H     1    ESP        -0.0182
     41 H          -0.0408    2.7788    1.8106 H     1    ESP        -0.0157
     42 H          -0.4916    2.9111    1.8106 H     1    ESP        -0.0126
     43 H          -0.9614    2.9111    1.8106 H     1    ESP        -0.0088
     44 H          -1.4122    2.7788    1.8106 H     1    ESP        -0.0048
     45 H          -1.8074    2.5248    1.8106 H     1    ESP        -0.0012
     46 H          -2.1150    2.1697    1.8106 H     1    ESP         0.0011
     47 H          -2.3102    1.7424    1.8106 H     1    ESP         0.0011
     48 H           0.8572    0.8124    1.8106 H     1    ESP        -0.0112
     49 H           1.1759    1.7283    1.4765 H     1    ESP        -0.0290
     50 H           1.0207    2.1549    1.4765 H     1    ESP        -0.0265
     51 H           0.7712    2.5341    1.4765 H     1    ESP        -0.0224
     52 H           0.4410    2.8457    1.4765 H     1    ESP        -0.0188
     53 H           0.0479    3.0726    1.4765 H     1    ESP        -0.0156
     54 H          -0.3870    3.2028    1.4765 H     1    ESP        -0.0122
     55 H          -0.8402    3.2292    1.4765 H     1    ESP        -0.0083
     56 H          -1.2872    3.1504    1.4765 H     1    ESP        -0.0040
     57 H          -1.7041    2.9706    1.4765 H     1    ESP         0.0005
     58 H          -2.0682    2.6995    1.4765 H     1    ESP         0.0047
     59 H          -2.3600    2.3518    1.4765 H     1    ESP         0.0078
     60 H          -2.5637    1.9461    1.4765 H     1    ESP         0.0095
     61 H           1.2770    2.1694    1.0921 H     1    ESP        -0.0375
     62 H           1.0478    2.5665    1.0921 H     1    ESP        -0.0286
     63 H           0.7410    2.9072    1.0921 H     1    ESP        -0.0222
     64 H           0.3701    3.1767    1.0921 H     1    ESP        -0.0177
     65 H          -0.0488    3.3632    1.0921 H     1    ESP        -0.0139
     66 H          -0.4972    3.4585    1.0921 H     1    ESP        -0.0101
     67 H          -0.9557    3.4585    1.0921 H     1    ESP        -0.0057
     68 H          -1.4042    3.3632    1.0921 H     1    ESP        -0.0009
     69 H          -1.8231    3.1767    1.0921 H     1    ESP         0.0043
     70 H          -2.1940    2.9072    1.0921 H     1    ESP         0.0094
     71 H          -2.5008    2.5665    1.0921 H     1    ESP         0.0142
     72 H           1.2328    2.5866    0.6705 H     1    ESP        -0.0363
     73 H           0.9398    2.9437    0.6705 H     1    ESP        -0.0259
     74 H           0.5827    3.2367    0.6705 H     1    ESP        -0.0196
     75 H           0.1753    3.4545    0.6705 H     1    ESP        -0.0152
     76 H          -0.2668    3.5886    0.6705 H     1    ESP        -0.0112
     77 H          -0.7265    3.6339    0.6705 H     1    ESP        -0.0069
     78 H          -1.1862    3.5886    0.6705 H     1    ESP        -0.0020
     79 H          -1.6283    3.4545    0.6705 H     1    ESP         0.0034
     80 H          -2.0357    3.2367    0.6705 H     1    ESP         0.0092
     81 H          -2.3928    2.9437    0.6705 H     1    ESP         0.0152
     82 H          -2.6858    2.5866    0.6705 H     1    ESP         0.0220
     83 H           1.3258    2.5963    0.2261 H     1    ESP        -0.0422
     84 H           1.0391    2.9609    0.2261 H     1    ESP        -0.0285
     85 H           0.6886    3.2646    0.2261 H     1    ESP        -0.0209
     86 H           0.2869    3.4965    0.2261 H     1    ESP        -0.0159
     87 H          -0.1513    3.6482    0.2261 H     1    ESP        -0.0117
     88 H          -0.6104    3.7142    0.2261 H     1    ESP        -0.0074
     89 H          -1.0737    3.6921    0.2261 H     1    ESP        -0.0026
     90 H          -1.5244    3.5828    0.2261 H     1    ESP         0.0029
     91 H          -1.9463    3.3901    0.2261 H     1    ESP         0.0088
     92 H          -2.3241    3.1211    0.2261 H     1    ESP         0.0152
     93 H          -2.6441    2.7854    0.2261 H     1    ESP         0.0226
     94 H           1.3258    2.5963   -0.2261 H     1    ESP        -0.0422
     95 H           1.0391    2.9609   -0.2261 H     1    ESP        -0.0285
     96 H           0.6886    3.2646   -0.2261 H     1    ESP        -0.0209
     97 H           0.2869    3.4965   -0.2261 H     1    ESP        -0.0159
     98 H          -0.1513    3.6482   -0.2261 H     1    ESP        -0.0117
     99 H          -0.6104    3.7142   -0.2261 H     1    ESP        -0.0074
    100 H          -1.0737    3.6921   -0.2261 H     1    ESP        -0.0026
    101 H          -1.5244    3.5828   -0.2261 H     1    ESP         0.0029
    102 H          -1.9463    3.3901   -0.2261 H     1    ESP         0.0088
    103 H          -2.3241    3.1211   -0.2261 H     1    ESP         0.0152
    104 H          -2.6441    2.7854   -0.2261 H     1    ESP         0.0226
    105 H           1.2328    2.5866   -0.6705 H     1    ESP        -0.0363
    106 H           0.9398    2.9437   -0.6705 H     1    ESP        -0.0259
    107 H           0.5827    3.2367   -0.6705 H     1    ESP        -0.0196
    108 H           0.1753    3.4545   -0.6705 H     1    ESP        -0.0152
    109 H          -0.2668    3.5886   -0.6705 H     1    ESP        -0.0112
    110 H          -0.7265    3.6339   -0.6705 H     1    ESP        -0.0069
    111 H          -1.1862    3.5886   -0.6705 H     1    ESP        -0.0020
    112 H          -1.6283    3.4545   -0.6705 H     1    ESP         0.0034
    113 H          -2.0357    3.2367   -0.6705 H     1    ESP         0.0092
    114 H          -2.3928    2.9437   -0.6705 H     1    ESP         0.0152
    115 H          -2.6858    2.5866   -0.6705 H     1    ESP         0.0220
    116 H           1.2770    2.1694   -1.0921 H     1    ESP        -0.0375
    117 H           1.0478    2.5665   -1.0921 H     1    ESP        -0.0286
    118 H           0.7410    2.9072   -1.0921 H     1    ESP        -0.0222
    119 H           0.3701    3.1767   -1.0921 H     1    ESP        -0.0177
    120 H          -0.0488    3.3632   -1.0921 H     1    ESP        -0.0139
    121 H          -0.4972    3.4585   -1.0921 H     1    ESP        -0.0101
    122 H          -0.9557    3.4585   -1.0921 H     1    ESP        -0.0057
    123 H          -1.4042    3.3632   -1.0921 H     1    ESP        -0.0009
    124 H          -1.8231    3.1767   -1.0921 H     1    ESP         0.0043
    125 H          -2.1940    2.9072   -1.0921 H     1    ESP         0.0094
    126 H          -2.5008    2.5665   -1.0921 H     1    ESP         0.0142
    127 H           1.1759    1.7283   -1.4765 H     1    ESP        -0.0290
    128 H           1.0207    2.1549   -1.4765 H     1    ESP        -0.0265
    129 H           0.7712    2.5341   -1.4765 H     1    ESP        -0.0224
    130 H           0.4410    2.8457   -1.4765 H     1    ESP        -0.0188
    131 H           0.0479    3.0726   -1.4765 H     1    ESP        -0.0156
    132 H          -0.3870    3.2028   -1.4765 H     1    ESP        -0.0122
    133 H          -0.8402    3.2292   -1.4765 H     1    ESP        -0.0083
    134 H          -1.2872    3.1504   -1.4765 H     1    ESP        -0.0040
    135 H          -1.7041    2.9706   -1.4765 H     1    ESP         0.0005
    136 H          -2.0682    2.6995   -1.4765 H     1    ESP         0.0047
    137 H          -2.3600    2.3518   -1.4765 H     1    ESP         0.0078
    138 H          -2.5637    1.9461   -1.4765 H     1    ESP         0.0095
    139 H           0.9241    1.2774   -1.8106 H     1    ESP        -0.0179
    140 H           0.8572    1.7424   -1.8106 H     1    ESP        -0.0208
    141 H           0.6620    2.1697   -1.8106 H     1    ESP        -0.0202
    142 H           0.3544    2.5248   -1.8106 H     1    ESP        -0.0182
    143 H          -0.0408    2.7788   -1.8106 H     1    ESP        -0.0157
    144 H          -0.4916    2.9111   -1.8106 H     1    ESP        -0.0126
    145 H          -0.9614    2.9111   -1.8106 H     1    ESP        -0.0088
    146 H          -1.4122    2.7788   -1.8106 H     1    ESP        -0.0048
    147 H          -1.8074    2.5248   -1.8106 H     1    ESP        -0.0012
    148 H          -2.1150    2.1697   -1.8106 H     1    ESP         0.0011
    149 H          -2.3102    1.7424   -1.8106 H     1    ESP         0.0011
    150 H           0.8572    0.8124   -1.8106 H     1    ESP        -0.0112
    151 H           0.5633    1.2774   -2.0830 H     1    ESP        -0.0152
    152 H           0.4762    1.7433   -2.0830 H     1    ESP        -0.0172
    153 H           0.2267    2.1463   -2.0830 H     1    ESP        -0.0170
    154 H          -0.1516    2.4319   -2.0830 H     1    ESP        -0.0154
    155 H          -0.6075    2.5616   -2.0830 H     1    ESP        -0.0127
    156 H          -1.0795    2.5179   -2.0830 H     1    ESP        -0.0094
    157 H          -1.5037    2.3066   -2.0830 H     1    ESP        -0.0062
    158 H          -1.8231    1.9564   -2.0830 H     1    ESP        -0.0044
    159 H          -1.9943    1.5144   -2.0830 H     1    ESP        -0.0050
    160 H          -1.9943    1.0404   -2.0830 H     1    ESP        -0.0075
    161 H          -1.8231    0.5984   -2.0830 H     1    ESP        -0.0098
    162 H          -1.5037    0.2481   -2.0830 H     1    ESP        -0.0100
    163 H          -1.0795    0.0369   -2.0830 H     1    ESP        -0.0092
    164 H          -0.6075   -0.0069   -2.0830 H     1    ESP        -0.0099
    165 H          -0.1516    0.1228   -2.0830 H     1    ESP        -0.0105
    166 H           0.2267    0.4085   -2.0830 H     1    ESP        -0.0103
    167 H           0.4762    0.8115   -2.0830 H     1    ESP        -0.0119
    168 H           0.1585    1.2774   -2.2846 H     1    ESP        -0.0142
    169 H           0.0400    1.7199   -2.2846 H     1    ESP        -0.0154
    170 H          -0.2840    2.0439   -2.2846 H     1    ESP        -0.0147
    171 H          -0.7265    2.1624   -2.2846 H     1    ESP        -0.0126
    172 H          -1.1690    2.0439   -2.2846 H     1    ESP        -0.0100
    173 H          -1.4930    1.7199   -2.2846 H     1    ESP        -0.0084
    174 H          -1.6115    1.2774   -2.2846 H     1    ESP        -0.0087
    175 H          -1.4930    0.8349   -2.2846 H     1    ESP        -0.0097
    176 H          -1.1690    0.5109   -2.2846 H     1    ESP        -0.0099
    177 H          -0.7265    0.3924   -2.2846 H     1    ESP        -0.0102
    178 H          -0.2840    0.5109   -2.2846 H     1    ESP        -0.0112
    179 H           0.0400    0.8349   -2.2846 H     1    ESP        -0.0123
    180 H          -0.2763    1.2774   -2.4083 H     1    ESP        -0.0134
    181 H          -0.5014    1.6673   -2.4083 H     1    ESP        -0.0135
    182 H          -0.9516    1.6673   -2.4083 H     1    ESP        -0.0117
    183 H          -1.1767    1.2774   -2.4083 H     1    ESP        -0.0106
    184 H          -0.9516    0.8875   -2.4083 H     1    ESP        -0.0109
    185 H          -0.5014    0.8875   -2.4083 H     1    ESP        -0.0119
    186 H          -0.7265    1.2774   -2.4500 H     1    ESP        -0.0122
    187 H          -2.2544    0.4737    2.1000 H     1    ESP        -0.0099
    188 H          -2.0207    0.8784    2.0473 H     1    ESP        -0.0081
    189 H          -2.4880    0.8784    2.0473 H     1    ESP        -0.0058
    190 H          -2.7217    0.4737    2.0473 H     1    ESP        -0.0070
    191 H          -2.4880    0.0690    2.0473 H     1    ESP        -0.0111
    192 H          -2.0207    0.0690    2.0473 H     1    ESP        -0.0123
    193 H          -2.7099    1.2628    1.8920 H     1    ESP        -0.0001
    194 H          -3.0434    0.9293    1.8920 H     1    ESP         0.0004
    195 H          -3.1655    0.4737    1.8920 H     1    ESP        -0.0017
    196 H          -3.0434    0.0181    1.8920 H     1    ESP        -0.0059
    197 H          -2.4817    1.7631    1.6418 H     1    ESP         0.0051
    198 H          -2.9090    1.6076    1.6418 H     1    ESP         0.0075
    199 H          -3.5637    0.4737    1.6418 H     1    ESP         0.0056
    200 H          -3.4847    0.0259    1.6418 H     1    ESP         0.0019
    201 H          -3.8297    0.0111    1.3093 H     1    ESP         0.0105
    202 H          -3.8297    0.0111   -1.3093 H     1    ESP         0.0105
    203 H          -2.4817    1.7631   -1.6418 H     1    ESP         0.0051
    204 H          -2.9090    1.6076   -1.6418 H     1    ESP         0.0075
    205 H          -3.5637    0.4737   -1.6418 H     1    ESP         0.0056
    206 H          -3.4847    0.0259   -1.6418 H     1    ESP         0.0019
    207 H          -2.7099    1.2628   -1.8920 H     1    ESP        -0.0001
    208 H          -3.0434    0.9293   -1.8920 H     1    ESP         0.0004
    209 H          -3.1655    0.4737   -1.8920 H     1    ESP        -0.0017
    210 H          -3.0434    0.0181   -1.8920 H     1    ESP        -0.0059
    211 H          -2.0207    0.8784   -2.0473 H     1    ESP        -0.0081
    212 H          -2.4880    0.8784   -2.0473 H     1    ESP        -0.0058
    213 H          -2.7217    0.4737   -2.0473 H     1    ESP        -0.0070
    214 H          -2.4880    0.0690   -2.0473 H     1    ESP        -0.0111
    215 H          -2.0207    0.0690   -2.0473 H     1    ESP        -0.0123
    216 H          -2.2544    0.4737   -2.1000 H     1    ESP        -0.0099
    217 H          -2.1294   -0.8942    2.1000 H     1    ESP        -0.0102
    218 H          -1.6621   -0.8942    2.0473 H     1    ESP        -0.0111
    219 H          -1.8957   -0.4895    2.0473 H     1    ESP        -0.0126
    220 H          -2.3630   -0.4895    2.0473 H     1    ESP        -0.0118
    221 H          -2.5967   -0.8942    2.0473 H     1    ESP        -0.0076
    222 H          -2.3630   -1.2988    2.0473 H     1    ESP        -0.0057
    223 H          -1.8957   -1.2988    2.0473 H     1    ESP        -0.0079
    224 H          -1.3403   -0.4386    1.8920 H     1    ESP        -0.0105
    225 H          -2.9185   -0.4386    1.8920 H     1    ESP        -0.0076
    226 H          -3.0405   -0.8942    1.8920 H     1    ESP        -0.0032
    227 H          -2.9185   -1.3497    1.8920 H     1    ESP        -0.0004
    228 H          -2.5849   -1.6832    1.8920 H     1    ESP         0.0002
    229 H          -2.1294   -1.8053    1.8920 H     1    ESP        -0.0014
    230 H          -1.6738   -1.6832    1.8920 H     1    ESP        -0.0044
    231 H          -3.3597   -0.4463    1.6418 H     1    ESP        -0.0003
    232 H          -3.4387   -0.8942    1.6418 H     1    ESP         0.0031
    233 H          -3.3597   -1.3420    1.6418 H     1    ESP         0.0060
    234 H          -2.7840   -2.0281    1.6418 H     1    ESP         0.0073
    235 H          -2.3567   -2.1836    1.6418 H     1    ESP         0.0059
    236 H          -1.9020   -2.1836    1.6418 H     1    ESP         0.0040
    237 H          -3.7047   -0.4316    1.3093 H     1    ESP         0.0083
    238 H          -2.3630   -2.5193    1.3093 H     1    ESP         0.0130
    239 H          -1.8957   -2.5193    1.3093 H     1    ESP         0.0120
    240 H          -3.9664   -0.4414    0.9112 H     1    ESP         0.0172
    241 H          -4.1254   -0.4386    0.4673 H     1    ESP         0.0240
    242 H          -4.1254   -0.4386   -0.4673 H     1    ESP         0.0240
    243 H          -3.9664   -0.4414   -0.9112 H     1    ESP         0.0172
    244 H          -3.7047   -0.4316   -1.3093 H     1    ESP         0.0083
    245 H          -2.3630   -2.5193   -1.3093 H     1    ESP         0.0130
    246 H          -1.8957   -2.5193   -1.3093 H     1    ESP         0.0120
    247 H          -3.3597   -0.4463   -1.6418 H     1    ESP        -0.0003
    248 H          -3.4387   -0.8942   -1.6418 H     1    ESP         0.0031
    249 H          -3.3597   -1.3420   -1.6418 H     1    ESP         0.0060
    250 H          -2.7840   -2.0281   -1.6418 H     1    ESP         0.0073
    251 H          -2.3567   -2.1836   -1.6418 H     1    ESP         0.0059
    252 H          -1.9020   -2.1836   -1.6418 H     1    ESP         0.0040
    253 H          -1.3403   -0.4386   -1.8920 H     1    ESP        -0.0105
    254 H          -2.9185   -0.4386   -1.8920 H     1    ESP        -0.0076
    255 H          -3.0405   -0.8942   -1.8920 H     1    ESP        -0.0032
    256 H          -2.9185   -1.3497   -1.8920 H     1    ESP        -0.0004
    257 H          -2.5849   -1.6832   -1.8920 H     1    ESP         0.0002
    258 H          -2.1294   -1.8053   -1.8920 H     1    ESP        -0.0014
    259 H          -1.6738   -1.6832   -1.8920 H     1    ESP        -0.0044
    260 H          -1.6621   -0.8942   -2.0473 H     1    ESP        -0.0111
    261 H          -1.8957   -0.4895   -2.0473 H     1    ESP        -0.0126
    262 H          -2.3630   -0.4895   -2.0473 H     1    ESP        -0.0118
    263 H          -2.5967   -0.8942   -2.0473 H     1    ESP        -0.0076
    264 H          -2.3630   -1.2988   -2.0473 H     1    ESP        -0.0057
    265 H          -1.8957   -1.2988   -2.0473 H     1    ESP        -0.0079
    266 H          -2.1294   -0.8942   -2.1000 H     1    ESP        -0.0102
    267 H          -0.7717   -1.3096    2.1000 H     1    ESP        -0.0078
    268 H          -0.3044   -1.3096    2.0473 H     1    ESP        -0.0069
    269 H          -0.5381   -0.9049    2.0473 H     1    ESP        -0.0106
    270 H          -1.0053   -0.9049    2.0473 H     1    ESP        -0.0105
    271 H          -1.2390   -1.3096    2.0473 H     1    ESP        -0.0084
    272 H          -1.0053   -1.7143    2.0473 H     1    ESP        -0.0040
    273 H          -0.5381   -1.7143    2.0473 H     1    ESP        -0.0030
    274 H           0.1395   -1.3096    1.8920 H     1    ESP        -0.0040
    275 H          -1.2273   -0.5205    1.8920 H     1    ESP        -0.0104
    276 H          -1.5608   -1.7651    1.8920 H     1    ESP        -0.0036
    277 H          -1.2273   -2.0986    1.8920 H     1    ESP         0.0008
    278 H          -0.7717   -2.2207    1.8920 H     1    ESP         0.0034
    279 H          -0.3161   -2.0986    1.8920 H     1    ESP         0.0034
    280 H           0.0174   -1.7651    1.8920 H     1    ESP         0.0007
    281 H          -1.4264   -2.4435    1.6418 H     1    ESP         0.0069
    282 H          -0.9991   -2.5990    1.6418 H     1    ESP         0.0099
    283 H          -0.1170   -2.4435    1.6418 H     1    ESP         0.0115
    284 H           0.2313   -2.1512    1.6418 H     1    ESP         0.0094
    285 H           0.4587   -1.7574    1.6418 H     1    ESP         0.0067
    286 H          -1.8469   -2.5504    1.3093 H     1    ESP         0.0122
    287 H          -1.4537   -2.8030    1.3093 H     1    ESP         0.0151
    288 H           0.6095   -2.1972    1.3093 H     1    ESP         0.0183
    289 H          -1.8465   -2.8667    0.9112 H     1    ESP         0.0204
    290 H          -1.8465   -2.8667   -0.9112 H     1    ESP         0.0204
    291 H          -1.8469   -2.5504   -1.3093 H     1    ESP         0.0122
    292 H          -1.4537   -2.8030   -1.3093 H     1    ESP         0.0151
    293 H           0.6095   -2.1972   -1.3093 H     1    ESP         0.0183
    294 H          -1.4264   -2.4435   -1.6418 H     1    ESP         0.0069
    295 H          -0.9991   -2.5990   -1.6418 H     1    ESP         0.0099
    296 H          -0.1170   -2.4435   -1.6418 H     1    ESP         0.0115
    297 H           0.2313   -2.1512   -1.6418 H     1    ESP         0.0094
    298 H           0.4587   -1.7574   -1.6418 H     1    ESP         0.0067
    299 H           0.1395   -1.3096   -1.8920 H     1    ESP        -0.0040
    300 H          -1.2273   -0.5205   -1.8920 H     1    ESP        -0.0104
    301 H          -1.5608   -1.7651   -1.8920 H     1    ESP        -0.0036
    302 H          -1.2273   -2.0986   -1.8920 H     1    ESP         0.0008
    303 H          -0.7717   -2.2207   -1.8920 H     1    ESP         0.0034
    304 H          -0.3161   -2.0986   -1.8920 H     1    ESP         0.0034
    305 H           0.0174   -1.7651   -1.8920 H     1    ESP         0.0007
    306 H          -0.3044   -1.3096   -2.0473 H     1    ESP        -0.0069
    307 H          -0.5381   -0.9049   -2.0473 H     1    ESP        -0.0106
    308 H          -1.0053   -0.9049   -2.0473 H     1    ESP        -0.0105
    309 H          -1.2390   -1.3096   -2.0473 H     1    ESP        -0.0084
    310 H          -1.0053   -1.7143   -2.0473 H     1    ESP        -0.0040
    311 H          -0.5381   -1.7143   -2.0473 H     1    ESP        -0.0030
    312 H          -0.7717   -1.3096   -2.1000 H     1    ESP        -0.0078
    313 H           0.1200   -0.2552    2.1000 H     1    ESP        -0.0097
    314 H           0.5873   -0.2552    2.0473 H     1    ESP        -0.0053
    315 H           0.3537    0.1495    2.0473 H     1    ESP        -0.0089
    316 H          -0.3473   -0.2552    2.0473 H     1    ESP        -0.0109
    317 H          -0.1136   -0.6599    2.0473 H     1    ESP        -0.0105
    318 H           0.3537   -0.6599    2.0473 H     1    ESP        -0.0064
    319 H           0.5756   -1.0443    1.8920 H     1    ESP        -0.0003
    320 H           0.7747   -1.3891    1.6418 H     1    ESP         0.0085
    321 H           0.7747   -1.3891   -1.6418 H     1    ESP         0.0085
    322 H           0.5756   -1.0443   -1.8920 H     1    ESP        -0.0003
    323 H           0.5873   -0.2552   -2.0473 H     1    ESP        -0.0053
    324 H           0.3537    0.1495   -2.0473 H     1    ESP        -0.0089
    325 H          -0.3473   -0.2552   -2.0473 H     1    ESP        -0.0109
    326 H          -0.1136   -0.6599   -2.0473 H     1    ESP        -0.0105
    327 H           0.3537   -0.6599   -2.0473 H     1    ESP        -0.0064
    328 H           0.1200   -0.2552   -2.1000 H     1    ESP        -0.0097
    329 H           1.5912   -0.2386    2.1000 H     1    ESP         0.0019
    330 H           2.0584   -0.2386    2.0473 H     1    ESP         0.0014
    331 H           1.8248    0.1661    2.0473 H     1    ESP        -0.0058
    332 H           1.3575    0.1661    2.0473 H     1    ESP        -0.0041
    333 H           1.1239   -0.2386    2.0473 H     1    ESP         0.0005
    334 H           1.3575   -0.6432    2.0473 H     1    ESP         0.0062
    335 H           1.8248   -0.6432    2.0473 H     1    ESP         0.0081
    336 H           2.5023   -0.2386    1.8920 H     1    ESP         0.0002
    337 H           2.3802    0.2170    1.8920 H     1    ESP        -0.0118
    338 H           1.5912    0.6726    1.8920 H     1    ESP        -0.0154
    339 H           1.1356    0.5505    1.8920 H     1    ESP        -0.0091
    340 H           1.1356   -1.0276    1.8920 H     1    ESP         0.0085
    341 H           0.9365   -1.3725    1.6418 H     1    ESP         0.0111
    342 H           0.9365   -1.3725   -1.6418 H     1    ESP         0.0111
    343 H           2.5023   -0.2386   -1.8920 H     1    ESP         0.0002
    344 H           2.3802    0.2170   -1.8920 H     1    ESP        -0.0118
    345 H           1.5912    0.6726   -1.8920 H     1    ESP        -0.0154
    346 H           1.1356    0.5505   -1.8920 H     1    ESP        -0.0091
    347 H           1.1356   -1.0276   -1.8920 H     1    ESP         0.0085
    348 H           2.0584   -0.2386   -2.0473 H     1    ESP         0.0014
    349 H           1.8248    0.1661   -2.0473 H     1    ESP        -0.0058
    350 H           1.3575    0.1661   -2.0473 H     1    ESP        -0.0041
    351 H           1.1239   -0.2386   -2.0473 H     1    ESP         0.0005
    352 H           1.3575   -0.6432   -2.0473 H     1    ESP         0.0062
    353 H           1.8248   -0.6432   -2.0473 H     1    ESP         0.0081
    354 H           1.5912   -0.2386   -2.1000 H     1    ESP         0.0019
    355 H           1.4361   -1.5599    1.8920 H     1    ESP         0.0113
    356 H           1.5582   -2.0155    1.8920 H     1    ESP         0.0112
    357 H           1.8917   -2.3490    1.8920 H     1    ESP         0.0118
    358 H           1.0379   -1.5599    1.6418 H     1    ESP         0.0123
    359 H           1.1169   -2.0077    1.6418 H     1    ESP         0.0129
    360 H           1.3442   -2.4015    1.6418 H     1    ESP         0.0137
    361 H           2.1199   -2.8494    1.6418 H     1    ESP         0.0125
    362 H           2.5809   -3.1851    1.3093 H     1    ESP         0.0125
    363 H           3.0182   -3.3290    0.9112 H     1    ESP         0.0112
    364 H           3.2356   -3.4045    0.4673 H     1    ESP         0.0100
    365 H           3.6237   -3.1606    0.4673 H     1    ESP         0.0093
    366 H           4.4472   -1.5599    0.0000 H     1    ESP         0.0035
    367 H           4.3981   -1.1085    0.0000 H     1    ESP        -0.0009
    368 H           4.2532   -0.6782    0.0000 H     1    ESP        -0.0080
    369 H           4.0190   -0.2891    0.0000 H     1    ESP        -0.0196
    370 H           3.3309   -3.4153    0.0000 H     1    ESP         0.0095
    371 H           3.7068   -3.1605    0.0000 H     1    ESP         0.0083
    372 H           4.0190   -2.8308    0.0000 H     1    ESP         0.0078
    373 H           4.2532   -2.4417    0.0000 H     1    ESP         0.0072
    374 H           4.3981   -2.0114    0.0000 H     1    ESP         0.0060
    375 H           3.2356   -3.4045   -0.4673 H     1    ESP         0.0100
    376 H           3.6237   -3.1606   -0.4673 H     1    ESP         0.0093
    377 H           3.0182   -3.3290   -0.9112 H     1    ESP         0.0112
    378 H           2.5809   -3.1851   -1.3093 H     1    ESP         0.0125
    379 H           1.0379   -1.5599   -1.6418 H     1    ESP         0.0123
    380 H           1.1169   -2.0077   -1.6418 H     1    ESP         0.0129
    381 H           1.3442   -2.4015   -1.6418 H     1    ESP         0.0137
    382 H           2.1199   -2.8494   -1.6418 H     1    ESP         0.0125
    383 H           1.4361   -1.5599   -1.8920 H     1    ESP         0.0113
    384 H           1.5582   -2.0155   -1.8920 H     1    ESP         0.0112
    385 H           1.8917   -2.3490   -1.8920 H     1    ESP         0.0118
    386 H           2.2063    0.8204    1.9600 H     1    ESP        -0.0243
    387 H           2.6753    0.8204    1.9030 H     1    ESP        -0.0281
    388 H           2.4408    1.2266    1.9030 H     1    ESP        -0.0326
    389 H           1.9717    1.2266    1.9030 H     1    ESP        -0.0296
    390 H           1.7372    0.8204    1.9030 H     1    ESP        -0.0203
    391 H           2.4408    0.4142    1.9030 H     1    ESP        -0.0178
    392 H           3.1171    0.8204    1.7355 H     1    ESP        -0.0322
    393 H           2.9951    1.2758    1.7355 H     1    ESP        -0.0373
    394 H           2.6617    1.6092    1.7355 H     1    ESP        -0.0390
    395 H           2.2063    1.7312    1.7355 H     1    ESP        -0.0382
    396 H           1.7508    1.6092    1.7355 H     1    ESP        -0.0341
    397 H           1.4174    1.2758    1.7355 H     1    ESP        -0.0261
    398 H           2.9951    0.3650    1.7355 H     1    ESP        -0.0224
    399 H           3.5060    0.8204    1.4671 H     1    ESP        -0.0365
    400 H           3.4182    1.2899    1.4671 H     1    ESP        -0.0413
    401 H           3.1668    1.6960    1.4671 H     1    ESP        -0.0433
    402 H           2.7856    1.9839    1.4671 H     1    ESP        -0.0439
    403 H           2.3262    2.1146    1.4671 H     1    ESP        -0.0434
    404 H           1.8506    2.0705    1.4671 H     1    ESP        -0.0411
    405 H           1.4230    1.8576    1.4671 H     1    ESP        -0.0354
    406 H           3.4182    0.3509    1.4671 H     1    ESP        -0.0273
    407 H           3.8193    0.8204    1.1134 H     1    ESP        -0.0406
    408 H           3.7540    1.2748    1.1134 H     1    ESP        -0.0448
    409 H           3.5632    1.6925    1.1134 H     1    ESP        -0.0467
    410 H           3.2626    2.0395    1.1134 H     1    ESP        -0.0474
    411 H           2.8763    2.2877    1.1134 H     1    ESP        -0.0475
    412 H           2.4358    2.4170    1.1134 H     1    ESP        -0.0473
    413 H           1.9767    2.4170    1.1134 H     1    ESP        -0.0460
    414 H           1.5362    2.2877    1.1134 H     1    ESP        -0.0423
    415 H           3.7540    0.3659    1.1134 H     1    ESP        -0.0328
    416 H           4.0389    0.8204    0.6950 H     1    ESP        -0.0440
    417 H           3.9813    1.2761    0.6950 H     1    ESP        -0.0477
    418 H           3.8122    1.7033    0.6950 H     1    ESP        -0.0493
    419 H           3.5422    2.0749    0.6950 H     1    ESP        -0.0498
    420 H           3.1882    2.3677    0.6950 H     1    ESP        -0.0499
    421 H           2.7726    2.5633    0.6950 H     1    ESP        -0.0500
    422 H           2.3213    2.6494    0.6950 H     1    ESP        -0.0497
    423 H           1.8629    2.6206    0.6950 H     1    ESP        -0.0482
    424 H           1.4260    2.4786    0.6950 H     1    ESP        -0.0437
    425 H           3.8122   -0.0625    0.6950 H     1    ESP        -0.0250
    426 H           3.9813    0.3646    0.6950 H     1    ESP        -0.0370
    427 H           4.1520    0.8204    0.2363 H     1    ESP        -0.0458
    428 H           4.0954    1.2860    0.2363 H     1    ESP        -0.0493
    429 H           3.9291    1.7246    0.2363 H     1    ESP        -0.0507
    430 H           3.6626    2.1106    0.2363 H     1    ESP        -0.0511
    431 H           3.3115    2.4217    0.2363 H     1    ESP        -0.0511
    432 H           2.8962    2.6397    0.2363 H     1    ESP        -0.0512
    433 H           2.4408    2.7519    0.2363 H     1    ESP        -0.0511
    434 H           1.9717    2.7519    0.2363 H     1    ESP        -0.0502
    435 H           1.5163    2.6397    0.2363 H     1    ESP        -0.0465
    436 H           3.9291   -0.0838    0.2363 H     1    ESP        -0.0280
    437 H           4.0954    0.3548    0.2363 H     1    ESP        -0.0392
    438 H           4.1520    0.8204   -0.2363 H     1    ESP        -0.0458
    439 H           4.0954    1.2860   -0.2363 H     1    ESP        -0.0493
    440 H           3.9291    1.7246   -0.2363 H     1    ESP        -0.0507
    441 H           3.6626    2.1106   -0.2363 H     1    ESP        -0.0511
    442 H           3.3115    2.4217   -0.2363 H     1    ESP        -0.0511
    443 H           2.8962    2.6397   -0.2363 H     1    ESP        -0.0512
    444 H           2.4408    2.7519   -0.2363 H     1    ESP        -0.0511
    445 H           1.9717    2.7519   -0.2363 H     1    ESP        -0.0502
    446 H           1.5163    2.6397   -0.2363 H     1    ESP        -0.0465
    447 H           3.9291   -0.0838   -0.2363 H     1    ESP        -0.0280
    448 H           4.0954    0.3548   -0.2363 H     1    ESP        -0.0392
    449 H           4.0389    0.8204   -0.6950 H     1    ESP        -0.0440
    450 H           3.9813    1.2761   -0.6950 H     1    ESP        -0.0477
    451 H           3.8122    1.7033   -0.6950 H     1    ESP        -0.0493
    452 H           3.5422    2.0749   -0.6950 H     1    ESP        -0.0498
    453 H           3.1882    2.3677   -0.6950 H     1    ESP        -0.0499
    454 H           2.7726    2.5633   -0.6950 H     1    ESP        -0.0500
    455 H           2.3213    2.6494   -0.6950 H     1    ESP        -0.0497
    456 H           1.8629    2.6206   -0.6950 H     1    ESP        -0.0482
    457 H           1.4260    2.4786   -0.6950 H     1    ESP        -0.0437
    458 H           3.8122   -0.0625   -0.6950 H     1    ESP        -0.0250
    459 H           3.9813    0.3646   -0.6950 H     1    ESP        -0.0370
    460 H           3.8193    0.8204   -1.1134 H     1    ESP        -0.0406
    461 H           3.7540    1.2748   -1.1134 H     1    ESP        -0.0448
    462 H           3.5632    1.6925   -1.1134 H     1    ESP        -0.0467
    463 H           3.2626    2.0395   -1.1134 H     1    ESP        -0.0474
    464 H           2.8763    2.2877   -1.1134 H     1    ESP        -0.0475
    465 H           2.4358    2.4170   -1.1134 H     1    ESP        -0.0473
    466 H           1.9767    2.4170   -1.1134 H     1    ESP        -0.0460
    467 H           1.5362    2.2877   -1.1134 H     1    ESP        -0.0423
    468 H           3.7540    0.3659   -1.1134 H     1    ESP        -0.0328
    469 H           3.5060    0.8204   -1.4671 H     1    ESP        -0.0365
    470 H           3.4182    1.2899   -1.4671 H     1    ESP        -0.0413
    471 H           3.1668    1.6960   -1.4671 H     1    ESP        -0.0433
    472 H           2.7856    1.9839   -1.4671 H     1    ESP        -0.0439
    473 H           2.3262    2.1146   -1.4671 H     1    ESP        -0.0434
    474 H           1.8506    2.0705   -1.4671 H     1    ESP        -0.0411
    475 H           1.4230    1.8576   -1.4671 H     1    ESP        -0.0354
    476 H           3.4182    0.3509   -1.4671 H     1    ESP        -0.0273
    477 H           3.1171    0.8204   -1.7355 H     1    ESP        -0.0322
    478 H           2.9951    1.2758   -1.7355 H     1    ESP        -0.0373
    479 H           2.6617    1.6092   -1.7355 H     1    ESP        -0.0390
    480 H           2.2063    1.7312   -1.7355 H     1    ESP        -0.0382
    481 H           1.7508    1.6092   -1.7355 H     1    ESP        -0.0341
    482 H           1.4174    1.2758   -1.7355 H     1    ESP        -0.0261
    483 H           2.9951    0.3650   -1.7355 H     1    ESP        -0.0224
    484 H           2.6753    0.8204   -1.9030 H     1    ESP        -0.0281
    485 H           2.4408    1.2266   -1.9030 H     1    ESP        -0.0326
    486 H           1.9717    1.2266   -1.9030 H     1    ESP        -0.0296
    487 H           1.7372    0.8204   -1.9030 H     1    ESP        -0.0203
    488 H           2.4408    0.4142   -1.9030 H     1    ESP        -0.0178
    489 H           2.2063    0.8204   -1.9600 H     1    ESP        -0.0243
    490 H          -3.4077    1.4599    1.6119 H     1    ESP         0.0114
    491 H          -3.6443    1.0500    1.6119 H     1    ESP         0.0110
    492 H          -3.1710    1.9583    1.4133 H     1    ESP         0.0144
    493 H          -3.6251    1.8366    1.4133 H     1    ESP         0.0166
    494 H          -3.9576    1.5041    1.4133 H     1    ESP         0.0174
    495 H          -4.0793    1.0500    1.4133 H     1    ESP         0.0164
    496 H          -3.9576    0.5959    1.4133 H     1    ESP         0.0135
    497 H          -3.0539    2.3142    1.1002 H     1    ESP         0.0183
    498 H          -3.5185    2.2712    1.1002 H     1    ESP         0.0197
    499 H          -3.9361    2.0632    1.1002 H     1    ESP         0.0210
    500 H          -4.2505    1.7184    1.1002 H     1    ESP         0.0216
    501 H          -4.4190    1.2833    1.1002 H     1    ESP         0.0212
    502 H          -4.4190    0.8167    1.1002 H     1    ESP         0.0200
    503 H          -4.2505    0.3816    1.1002 H     1    ESP         0.0180
    504 H          -3.1710    2.5782    0.6979 H     1    ESP         0.0218
    505 H          -3.6432    2.5034    0.6979 H     1    ESP         0.0226
    506 H          -4.0693    2.2863    0.6979 H     1    ESP         0.0236
    507 H          -4.4073    1.9482    0.6979 H     1    ESP         0.0242
    508 H          -4.6244    1.5222    0.6979 H     1    ESP         0.0243
    509 H          -4.6992    1.0500    0.6979 H     1    ESP         0.0236
    510 H          -4.6244    0.5778    0.6979 H     1    ESP         0.0226
    511 H          -4.4073    0.1518    0.6979 H     1    ESP         0.0217
    512 H          -2.9344    2.6960    0.2391 H     1    ESP         0.0243
    513 H          -3.4077    2.6960    0.2391 H     1    ESP         0.0236
    514 H          -3.8618    2.5626    0.2391 H     1    ESP         0.0243
    515 H          -4.2600    2.3067    0.2391 H     1    ESP         0.0252
    516 H          -4.5699    1.9490    0.2391 H     1    ESP         0.0257
    517 H          -4.7665    1.5185    0.2391 H     1    ESP         0.0256
    518 H          -4.8339    1.0500    0.2391 H     1    ESP         0.0251
    519 H          -4.7665    0.5815    0.2391 H     1    ESP         0.0244
    520 H          -4.5699    0.1510    0.2391 H     1    ESP         0.0240
    521 H          -4.2600   -0.2067    0.2391 H     1    ESP         0.0255
    522 H          -2.9344    2.6960   -0.2391 H     1    ESP         0.0243
    523 H          -3.4077    2.6960   -0.2391 H     1    ESP         0.0236
    524 H          -3.8618    2.5626   -0.2391 H     1    ESP         0.0243
    525 H          -4.2600    2.3067   -0.2391 H     1    ESP         0.0252
    526 H          -4.5699    1.9490   -0.2391 H     1    ESP         0.0257
    527 H          -4.7665    1.5185   -0.2391 H     1    ESP         0.0256
    528 H          -4.8339    1.0500   -0.2391 H     1    ESP         0.0251
    529 H          -4.7665    0.5815   -0.2391 H     1    ESP         0.0244
    530 H          -4.5699    0.1510   -0.2391 H     1    ESP         0.0240
    531 H          -4.2600   -0.2067   -0.2391 H     1    ESP         0.0255
    532 H          -3.1710    2.5782   -0.6979 H     1    ESP         0.0218
    533 H          -3.6432    2.5034   -0.6979 H     1    ESP         0.0226
    534 H          -4.0693    2.2863   -0.6979 H     1    ESP         0.0236
    535 H          -4.4073    1.9482   -0.6979 H     1    ESP         0.0242
    536 H          -4.6244    1.5222   -0.6979 H     1    ESP         0.0243
    537 H          -4.6992    1.0500   -0.6979 H     1    ESP         0.0236
    538 H          -4.6244    0.5778   -0.6979 H     1    ESP         0.0226
    539 H          -4.4073    0.1518   -0.6979 H     1    ESP         0.0217
    540 H          -3.0539    2.3142   -1.1002 H     1    ESP         0.0183
    541 H          -3.5185    2.2712   -1.1002 H     1    ESP         0.0197
    542 H          -3.9361    2.0632   -1.1002 H     1    ESP         0.0210
    543 H          -4.2505    1.7184   -1.1002 H     1    ESP         0.0216
    544 H          -4.4190    1.2833   -1.1002 H     1    ESP         0.0212
    545 H          -4.4190    0.8167   -1.1002 H     1    ESP         0.0200
    546 H          -4.2505    0.3816   -1.1002 H     1    ESP         0.0180
    547 H          -3.1710    1.9583   -1.4133 H     1    ESP         0.0144
    548 H          -3.6251    1.8366   -1.4133 H     1    ESP         0.0166
    549 H          -3.9576    1.5041   -1.4133 H     1    ESP         0.0174
    550 H          -4.0793    1.0500   -1.4133 H     1    ESP         0.0164
    551 H          -3.9576    0.5959   -1.4133 H     1    ESP         0.0135
    552 H          -3.4077    1.4599   -1.6119 H     1    ESP         0.0114
    553 H          -3.6443    1.0500   -1.6119 H     1    ESP         0.0110
    554 H          -3.4465   -1.5752    1.6119 H     1    ESP         0.0091
    555 H          -3.2098   -1.9851    1.6119 H     1    ESP         0.0104
    556 H          -3.7598   -1.1211    1.4133 H     1    ESP         0.0107
    557 H          -3.8815   -1.5752    1.4133 H     1    ESP         0.0140
    558 H          -3.7598   -2.0294    1.4133 H     1    ESP         0.0156
    559 H          -3.4273   -2.3618    1.4133 H     1    ESP         0.0157
    560 H          -2.9732   -2.4835    1.4133 H     1    ESP         0.0142
    561 H          -4.0527   -0.9068    1.1002 H     1    ESP         0.0154
    562 H          -4.2212   -1.3419    1.1002 H     1    ESP         0.0173
    563 H          -4.2212   -1.8085    1.1002 H     1    ESP         0.0188
    564 H          -4.0527   -2.2436    1.1002 H     1    ESP         0.0196
    565 H          -3.7383   -2.5884    1.1002 H     1    ESP         0.0198
    566 H          -3.3206   -2.7964    1.1002 H     1    ESP         0.0192
    567 H          -2.8560   -2.8395    1.1002 H     1    ESP         0.0182
    568 H          -2.4072   -2.7118    1.1002 H     1    ESP         0.0171
    569 H          -4.2095   -0.6770    0.6979 H     1    ESP         0.0202
    570 H          -4.4266   -1.1030    0.6979 H     1    ESP         0.0202
    571 H          -4.5014   -1.5752    0.6979 H     1    ESP         0.0210
    572 H          -4.4266   -2.0475    0.6979 H     1    ESP         0.0218
    573 H          -4.2095   -2.4735    0.6979 H     1    ESP         0.0223
    574 H          -3.8714   -2.8116    0.6979 H     1    ESP         0.0224
    575 H          -3.4454   -3.0286    0.6979 H     1    ESP         0.0221
    576 H          -2.9732   -3.1034    0.6979 H     1    ESP         0.0216
    577 H          -2.5009   -3.0286    0.6979 H     1    ESP         0.0218
    578 H          -4.3721   -0.6762    0.2391 H     1    ESP         0.0232
    579 H          -4.5687   -1.1067    0.2391 H     1    ESP         0.0222
    580 H          -4.6361   -1.5752    0.2391 H     1    ESP         0.0225
    581 H          -4.5687   -2.0437    0.2391 H     1    ESP         0.0231
    582 H          -4.3721   -2.4743    0.2391 H     1    ESP         0.0236
    583 H          -4.0621   -2.8320    0.2391 H     1    ESP         0.0237
    584 H          -3.6640   -3.0879    0.2391 H     1    ESP         0.0236
    585 H          -3.2098   -3.2212    0.2391 H     1    ESP         0.0233
    586 H          -2.7365   -3.2212    0.2391 H     1    ESP         0.0235
    587 H          -2.2824   -3.0879    0.2391 H     1    ESP         0.0253
    588 H          -4.3721   -0.6762   -0.2391 H     1    ESP         0.0232
    589 H          -4.5687   -1.1067   -0.2391 H     1    ESP         0.0222
    590 H          -4.6361   -1.5752   -0.2391 H     1    ESP         0.0225
    591 H          -4.5687   -2.0437   -0.2391 H     1    ESP         0.0231
    592 H          -4.3721   -2.4743   -0.2391 H     1    ESP         0.0236
    593 H          -4.0621   -2.8320   -0.2391 H     1    ESP         0.0237
    594 H          -3.6640   -3.0879   -0.2391 H     1    ESP         0.0236
    595 H          -3.2098   -3.2212   -0.2391 H     1    ESP         0.0233
    596 H          -2.7365   -3.2212   -0.2391 H     1    ESP         0.0235
    597 H          -2.2824   -3.0879   -0.2391 H     1    ESP         0.0253
    598 H          -4.2095   -0.6770   -0.6979 H     1    ESP         0.0202
    599 H          -4.4266   -1.1030   -0.6979 H     1    ESP         0.0202
    600 H          -4.5014   -1.5752   -0.6979 H     1    ESP         0.0210
    601 H          -4.4266   -2.0475   -0.6979 H     1    ESP         0.0218
    602 H          -4.2095   -2.4735   -0.6979 H     1    ESP         0.0223
    603 H          -3.8714   -2.8116   -0.6979 H     1    ESP         0.0224
    604 H          -3.4454   -3.0286   -0.6979 H     1    ESP         0.0221
    605 H          -2.9732   -3.1034   -0.6979 H     1    ESP         0.0216
    606 H          -2.5009   -3.0286   -0.6979 H     1    ESP         0.0218
    607 H          -4.0527   -0.9068   -1.1002 H     1    ESP         0.0154
    608 H          -4.2212   -1.3419   -1.1002 H     1    ESP         0.0173
    609 H          -4.2212   -1.8085   -1.1002 H     1    ESP         0.0188
    610 H          -4.0527   -2.2436   -1.1002 H     1    ESP         0.0196
    611 H          -3.7383   -2.5884   -1.1002 H     1    ESP         0.0198
    612 H          -3.3206   -2.7964   -1.1002 H     1    ESP         0.0192
    613 H          -2.8560   -2.8395   -1.1002 H     1    ESP         0.0182
    614 H          -2.4072   -2.7118   -1.1002 H     1    ESP         0.0171
    615 H          -3.7598   -1.1211   -1.4133 H     1    ESP         0.0107
    616 H          -3.8815   -1.5752   -1.4133 H     1    ESP         0.0140
    617 H          -3.7598   -2.0294   -1.4133 H     1    ESP         0.0156
    618 H          -3.4273   -2.3618   -1.4133 H     1    ESP         0.0157
    619 H          -2.9732   -2.4835   -1.4133 H     1    ESP         0.0142
    620 H          -3.4465   -1.5752   -1.6119 H     1    ESP         0.0091
    621 H          -3.2098   -1.9851   -1.6119 H     1    ESP         0.0104
    622 H          -0.7026   -2.7592    1.6119 H     1    ESP         0.0131
    623 H          -0.2293   -2.7592    1.6119 H     1    ESP         0.0147
    624 H           0.4423   -2.3493    1.4133 H     1    ESP         0.0166
    625 H          -1.2525   -2.8034    1.4133 H     1    ESP         0.0143
    626 H          -0.9201   -3.1359    1.4133 H     1    ESP         0.0176
    627 H          -0.4660   -3.2576    1.4133 H     1    ESP         0.0197
    628 H          -0.0118   -3.1359    1.4133 H     1    ESP         0.0206
    629 H           0.3206   -2.8034    1.4133 H     1    ESP         0.0197
    630 H          -1.5454   -3.0177    1.1002 H     1    ESP         0.0189
    631 H          -1.2311   -3.3625    1.1002 H     1    ESP         0.0209
    632 H          -0.8134   -3.5705    1.1002 H     1    ESP         0.0227
    633 H          -0.3488   -3.6135    1.1002 H     1    ESP         0.0242
    634 H           0.1000   -3.4858    1.1002 H     1    ESP         0.0254
    635 H           0.4723   -3.2046    1.1002 H     1    ESP         0.0266
    636 H          -1.7023   -3.2475    0.6979 H     1    ESP         0.0232
    637 H          -1.3642   -3.5856    0.6979 H     1    ESP         0.0239
    638 H          -0.9382   -3.8027    0.6979 H     1    ESP         0.0252
    639 H          -0.4660   -3.8775    0.6979 H     1    ESP         0.0266
    640 H           0.0063   -3.8027    0.6979 H     1    ESP         0.0282
    641 H           0.4323   -3.5856    0.6979 H     1    ESP         0.0306
    642 H          -1.8649   -3.2483    0.2391 H     1    ESP         0.0259
    643 H          -1.5549   -3.6060    0.2391 H     1    ESP         0.0253
    644 H          -1.1567   -3.8619    0.2391 H     1    ESP         0.0261
    645 H          -0.7026   -3.9953    0.2391 H     1    ESP         0.0273
    646 H          -0.2293   -3.9953    0.2391 H     1    ESP         0.0288
    647 H           0.2248   -3.8619    0.2391 H     1    ESP         0.0309
    648 H          -1.8649   -3.2483   -0.2391 H     1    ESP         0.0259
    649 H          -1.5549   -3.6060   -0.2391 H     1    ESP         0.0253
    650 H          -1.1567   -3.8619   -0.2391 H     1    ESP         0.0261
    651 H          -0.7026   -3.9953   -0.2391 H     1    ESP         0.0273
    652 H          -0.2293   -3.9953   -0.2391 H     1    ESP         0.0288
    653 H           0.2248   -3.8619   -0.2391 H     1    ESP         0.0309
    654 H          -1.7023   -3.2475   -0.6979 H     1    ESP         0.0232
    655 H          -1.3642   -3.5856   -0.6979 H     1    ESP         0.0239
    656 H          -0.9382   -3.8027   -0.6979 H     1    ESP         0.0252
    657 H          -0.4660   -3.8775   -0.6979 H     1    ESP         0.0266
    658 H           0.0063   -3.8027   -0.6979 H     1    ESP         0.0282
    659 H           0.4323   -3.5856   -0.6979 H     1    ESP         0.0306
    660 H          -1.5454   -3.0177   -1.1002 H     1    ESP         0.0189
    661 H          -1.2311   -3.3625   -1.1002 H     1    ESP         0.0209
    662 H          -0.8134   -3.5705   -1.1002 H     1    ESP         0.0227
    663 H          -0.3488   -3.6135   -1.1002 H     1    ESP         0.0242
    664 H           0.1000   -3.4858   -1.1002 H     1    ESP         0.0254
    665 H           0.4723   -3.2046   -1.1002 H     1    ESP         0.0266
    666 H           0.4423   -2.3493   -1.4133 H     1    ESP         0.0166
    667 H          -1.2525   -2.8034   -1.4133 H     1    ESP         0.0143
    668 H          -0.9201   -3.1359   -1.4133 H     1    ESP         0.0176
    669 H          -0.4660   -3.2576   -1.4133 H     1    ESP         0.0197
    670 H          -0.0118   -3.1359   -1.4133 H     1    ESP         0.0206
    671 H           0.3206   -2.8034   -1.4133 H     1    ESP         0.0197
    672 H          -0.7026   -2.7592   -1.6119 H     1    ESP         0.0131
    673 H          -0.2293   -2.7592   -1.6119 H     1    ESP         0.0147
    674 H           1.2386   -2.4476    1.6119 H     1    ESP         0.0143
    675 H           1.4753   -2.8575    1.6119 H     1    ESP         0.0144
    676 H           1.9486   -2.8575    1.6119 H     1    ESP         0.0130
    677 H           0.8037   -2.4476    1.4133 H     1    ESP         0.0178
    678 H           0.9253   -2.9017    1.4133 H     1    ESP         0.0193
    679 H           1.2578   -3.2342    1.4133 H     1    ESP         0.0181
    680 H           1.7119   -3.3559    1.4133 H     1    ESP         0.0155
    681 H           2.1661   -3.2342    1.4133 H     1    ESP         0.0132
    682 H           0.6324   -3.1160    1.1002 H     1    ESP         0.0266
    683 H           0.9468   -3.4608    1.1002 H     1    ESP         0.0234
    684 H           1.3645   -3.6688    1.1002 H     1    ESP         0.0200
    685 H           1.8291   -3.7119    1.1002 H     1    ESP         0.0168
    686 H           2.2779   -3.5842    1.1002 H     1    ESP         0.0140
    687 H           0.8137   -3.6839    0.6979 H     1    ESP         0.0277
    688 H           1.2397   -3.9010    0.6979 H     1    ESP         0.0230
    689 H           1.7119   -3.9758    0.6979 H     1    ESP         0.0192
    690 H           2.1842   -3.9010    0.6979 H     1    ESP         0.0159
    691 H           2.6102   -3.6839    0.6979 H     1    ESP         0.0131
    692 H           0.6230   -3.7043    0.2391 H     1    ESP         0.0329
    693 H           1.0211   -3.9602    0.2391 H     1    ESP         0.0263
    694 H           1.4753   -4.0936    0.2391 H     1    ESP         0.0219
    695 H           1.9486   -4.0936    0.2391 H     1    ESP         0.0183
    696 H           2.4027   -3.9602    0.2391 H     1    ESP         0.0151
    697 H           2.8009   -3.7043    0.2391 H     1    ESP         0.0124
    698 H           0.6230   -3.7043   -0.2391 H     1    ESP         0.0329
    699 H           1.0211   -3.9602   -0.2391 H     1    ESP         0.0263
    700 H           1.4753   -4.0936   -0.2391 H     1    ESP         0.0219
    701 H           1.9486   -4.0936   -0.2391 H     1    ESP         0.0183
    702 H           2.4027   -3.9602   -0.2391 H     1    ESP         0.0151
    703 H           2.8009   -3.7043   -0.2391 H     1    ESP         0.0124
    704 H           0.8137   -3.6839   -0.6979 H     1    ESP         0.0277
    705 H           1.2397   -3.9010   -0.6979 H     1    ESP         0.0230
    706 H           1.7119   -3.9758   -0.6979 H     1    ESP         0.0192
    707 H           2.1842   -3.9010   -0.6979 H     1    ESP         0.0159
    708 H           2.6102   -3.6839   -0.6979 H     1    ESP         0.0131
    709 H           0.6324   -3.1160   -1.1002 H     1    ESP         0.0266
    710 H           0.9468   -3.4608   -1.1002 H     1    ESP         0.0234
    711 H           1.3645   -3.6688   -1.1002 H     1    ESP         0.0200
    712 H           1.8291   -3.7119   -1.1002 H     1    ESP         0.0168
    713 H           2.2779   -3.5842   -1.1002 H     1    ESP         0.0140
    714 H           0.8037   -2.4476   -1.4133 H     1    ESP         0.0178
    715 H           0.9253   -2.9017   -1.4133 H     1    ESP         0.0193
    716 H           1.2578   -3.2342   -1.4133 H     1    ESP         0.0181
    717 H           1.7119   -3.3559   -1.4133 H     1    ESP         0.0155
    718 H           2.1661   -3.2342   -1.4133 H     1    ESP         0.0132
    719 H           1.2386   -2.4476   -1.6119 H     1    ESP         0.0143
    720 H           1.4753   -2.8575   -1.6119 H     1    ESP         0.0144
    721 H           1.9486   -2.8575   -1.6119 H     1    ESP         0.0130
    722 H           4.5245   -1.5849   -0.1836 H     1    ESP         0.0033
    723 H           4.4497   -1.1127   -0.1836 H     1    ESP        -0.0009
    724 H           4.2326   -2.4831   -0.1836 H     1    ESP         0.0075
    725 H           4.4497   -2.0571   -0.1836 H     1    ESP         0.0059
    726 H           4.6592   -1.5849   -0.6424 H     1    ESP         0.0044
    727 H           4.5918   -1.1164   -0.6424 H     1    ESP         0.0006
    728 H           4.3952   -0.6859   -0.6424 H     1    ESP        -0.0052
    729 H           4.0853   -0.3282   -0.6424 H     1    ESP        -0.0139
    730 H           3.6871   -3.0975   -0.6424 H     1    ESP         0.0097
    731 H           4.0853   -2.8416   -0.6424 H     1    ESP         0.0090
    732 H           4.3952   -2.4839   -0.6424 H     1    ESP         0.0082
    733 H           4.5918   -2.0534   -0.6424 H     1    ESP         0.0068
    734 H           4.6592   -1.5849   -1.1206 H     1    ESP         0.0066
    735 H           4.5918   -1.1164   -1.1206 H     1    ESP         0.0032
    736 H           4.3952   -0.6859   -1.1206 H     1    ESP        -0.0018
    737 H           4.0853   -0.3282   -1.1206 H     1    ESP        -0.0090
    738 H           3.6871   -0.0723   -1.1206 H     1    ESP        -0.0180
    739 H           3.2329   -3.2309   -1.1206 H     1    ESP         0.0111
    740 H           3.6871   -3.0975   -1.1206 H     1    ESP         0.0108
    741 H           4.0853   -2.8416   -1.1206 H     1    ESP         0.0106
    742 H           4.3952   -2.4839   -1.1206 H     1    ESP         0.0100
    743 H           4.5918   -2.0534   -1.1206 H     1    ESP         0.0088
    744 H           4.5245   -1.5849   -1.5794 H     1    ESP         0.0088
    745 H           4.4497   -1.1127   -1.5794 H     1    ESP         0.0056
    746 H           4.2326   -0.6866   -1.5794 H     1    ESP         0.0012
    747 H           3.8945   -0.3486   -1.5794 H     1    ESP        -0.0044
    748 H           3.4685   -0.1315   -1.5794 H     1    ESP        -0.0096
    749 H           2.9963   -0.0567   -1.5794 H     1    ESP        -0.0100
    750 H           2.5241   -3.0383   -1.5794 H     1    ESP         0.0121
    751 H           2.9963   -3.1131   -1.5794 H     1    ESP         0.0119
    752 H           3.4685   -3.0383   -1.5794 H     1    ESP         0.0120
    753 H           3.8945   -2.8212   -1.5794 H     1    ESP         0.0121
    754 H           4.2326   -2.4831   -1.5794 H     1    ESP         0.0118
    755 H           4.4497   -2.0571   -1.5794 H     1    ESP         0.0108
    756 H           4.2660   -1.5849   -1.9817 H     1    ESP         0.0104
    757 H           4.1802   -1.1262   -1.9817 H     1    ESP         0.0076
    758 H           3.9346   -0.7295   -1.9817 H     1    ESP         0.0040
    759 H           3.5622   -0.4483   -1.9817 H     1    ESP         0.0003
    760 H           3.1134   -0.3206   -1.9817 H     1    ESP        -0.0012
    761 H           2.6488   -0.3637   -1.9817 H     1    ESP         0.0018
    762 H           2.2312   -0.5717   -1.9817 H     1    ESP         0.0080
    763 H           1.9168   -0.9165   -1.9817 H     1    ESP         0.0119
    764 H           1.9168   -2.2533   -1.9817 H     1    ESP         0.0114
    765 H           2.2312   -2.5981   -1.9817 H     1    ESP         0.0117
    766 H           2.6488   -2.8061   -1.9817 H     1    ESP         0.0121
    767 H           3.1134   -2.8491   -1.9817 H     1    ESP         0.0126
    768 H           3.5622   -2.7214   -1.9817 H     1    ESP         0.0130
    769 H           3.9346   -2.4403   -1.9817 H     1    ESP         0.0129
    770 H           4.1802   -2.0435   -1.9817 H     1    ESP         0.0121
    771 H           3.9046   -1.5849   -2.2948 H     1    ESP         0.0113
    772 H           3.7829   -1.1307   -2.2948 H     1    ESP         0.0088
    773 H           3.4504   -0.7983   -2.2948 H     1    ESP         0.0060
    774 H           2.9963   -0.6766   -2.2948 H     1    ESP         0.0051
    775 H           2.5422   -0.7983   -2.2948 H     1    ESP         0.0070
    776 H           2.2097   -1.1307   -2.2948 H     1    ESP         0.0093
    777 H           2.0880   -1.5849   -2.2948 H     1    ESP         0.0104
    778 H           2.2097   -2.0390   -2.2948 H     1    ESP         0.0111
    779 H           2.5422   -2.3715   -2.2948 H     1    ESP         0.0119
    780 H           2.9963   -2.4932   -2.2948 H     1    ESP         0.0128
    781 H           3.4504   -2.3715   -2.2948 H     1    ESP         0.0132
    782 H           3.7829   -2.0390   -2.2948 H     1    ESP         0.0129
    783 H           3.4696   -1.5849   -2.4934 H     1    ESP         0.0116
    784 H           3.2329   -1.1750   -2.4934 H     1    ESP         0.0094
    785 H           2.7596   -1.1750   -2.4934 H     1    ESP         0.0092
    786 H           2.5230   -1.5849   -2.4934 H     1    ESP         0.0107
    787 H           2.7596   -1.9948   -2.4934 H     1    ESP         0.0120
    788 H           3.2329   -1.9948   -2.4934 H     1    ESP         0.0126
    789 H           2.9963   -1.5849   -2.5615 H     1    ESP         0.0113
    790 H           2.9963   -1.5849    2.5615 H     1    ESP         0.0113
    791 H           3.4696   -1.5849    2.4934 H     1    ESP         0.0116
    792 H           3.2329   -1.1750    2.4934 H     1    ESP         0.0094
    793 H           2.7596   -1.1750    2.4934 H     1    ESP         0.0092
    794 H           2.5230   -1.5849    2.4934 H     1    ESP         0.0107
    795 H           2.7596   -1.9948    2.4934 H     1    ESP         0.0120
    796 H           3.2329   -1.9948    2.4934 H     1    ESP         0.0126
    797 H           3.9046   -1.5849    2.2948 H     1    ESP         0.0113
    798 H           3.7829   -1.1307    2.2948 H     1    ESP         0.0088
    799 H           3.4504   -0.7983    2.2948 H     1    ESP         0.0060
    800 H           2.9963   -0.6766    2.2948 H     1    ESP         0.0051
    801 H           2.5422   -0.7983    2.2948 H     1    ESP         0.0070
    802 H           2.2097   -1.1307    2.2948 H     1    ESP         0.0093
    803 H           2.0880   -1.5849    2.2948 H     1    ESP         0.0104
    804 H           2.2097   -2.0390    2.2948 H     1    ESP         0.0111
    805 H           2.5422   -2.3715    2.2948 H     1    ESP         0.0119
    806 H           2.9963   -2.4932    2.2948 H     1    ESP         0.0128
    807 H           3.4504   -2.3715    2.2948 H     1    ESP         0.0132
    808 H           3.7829   -2.0390    2.2948 H     1    ESP         0.0129
    809 H           4.2660   -1.5849    1.9817 H     1    ESP         0.0104
    810 H           4.1802   -1.1262    1.9817 H     1    ESP         0.0076
    811 H           3.9346   -0.7295    1.9817 H     1    ESP         0.0040
    812 H           3.5622   -0.4483    1.9817 H     1    ESP         0.0003
    813 H           3.1134   -0.3206    1.9817 H     1    ESP        -0.0012
    814 H           2.6488   -0.3637    1.9817 H     1    ESP         0.0018
    815 H           2.2312   -0.5717    1.9817 H     1    ESP         0.0080
    816 H           1.9168   -0.9165    1.9817 H     1    ESP         0.0119
    817 H           1.9168   -2.2533    1.9817 H     1    ESP         0.0114
    818 H           2.2312   -2.5981    1.9817 H     1    ESP         0.0117
    819 H           2.6488   -2.8061    1.9817 H     1    ESP         0.0121
    820 H           3.1134   -2.8491    1.9817 H     1    ESP         0.0126
    821 H           3.5622   -2.7214    1.9817 H     1    ESP         0.0130
    822 H           3.9346   -2.4403    1.9817 H     1    ESP         0.0129
    823 H           4.1802   -2.0435    1.9817 H     1    ESP         0.0121
    824 H           4.5245   -1.5849    1.5794 H     1    ESP         0.0088
    825 H           4.4497   -1.1127    1.5794 H     1    ESP         0.0056
    826 H           4.2326   -0.6866    1.5794 H     1    ESP         0.0012
    827 H           3.8945   -0.3486    1.5794 H     1    ESP        -0.0044
    828 H           3.4685   -0.1315    1.5794 H     1    ESP        -0.0096
    829 H           2.9963   -0.0567    1.5794 H     1    ESP        -0.0100
    830 H           2.5241   -3.0383    1.5794 H     1    ESP         0.0121
    831 H           2.9963   -3.1131    1.5794 H     1    ESP         0.0119
    832 H           3.4685   -3.0383    1.5794 H     1    ESP         0.0120
    833 H           3.8945   -2.8212    1.5794 H     1    ESP         0.0121
    834 H           4.2326   -2.4831    1.5794 H     1    ESP         0.0118
    835 H           4.4497   -2.0571    1.5794 H     1    ESP         0.0108
    836 H           4.6592   -1.5849    1.1206 H     1    ESP         0.0066
    837 H           4.5918   -1.1164    1.1206 H     1    ESP         0.0032
    838 H           4.3952   -0.6859    1.1206 H     1    ESP        -0.0018
    839 H           4.0853   -0.3282    1.1206 H     1    ESP        -0.0090
    840 H           3.6871   -0.0723    1.1206 H     1    ESP        -0.0180
    841 H           3.2329   -3.2309    1.1206 H     1    ESP         0.0111
    842 H           3.6871   -3.0975    1.1206 H     1    ESP         0.0108
    843 H           4.0853   -2.8416    1.1206 H     1    ESP         0.0106
    844 H           4.3952   -2.4839    1.1206 H     1    ESP         0.0100
    845 H           4.5918   -2.0534    1.1206 H     1    ESP         0.0088
    846 H           4.6592   -1.5849    0.6424 H     1    ESP         0.0044
    847 H           4.5918   -1.1164    0.6424 H     1    ESP         0.0006
    848 H           4.3952   -0.6859    0.6424 H     1    ESP        -0.0052
    849 H           4.0853   -0.3282    0.6424 H     1    ESP        -0.0139
    850 H           3.6871   -3.0975    0.6424 H     1    ESP         0.0097
    851 H           4.0853   -2.8416    0.6424 H     1    ESP         0.0090
    852 H           4.3952   -2.4839    0.6424 H     1    ESP         0.0082
    853 H           4.5918   -2.0534    0.6424 H     1    ESP         0.0068
    854 H           4.5245   -1.5849    0.1836 H     1    ESP         0.0033
    855 H           4.4497   -1.1127    0.1836 H     1    ESP        -0.0009
    856 H           4.2326   -2.4831    0.1836 H     1    ESP         0.0075
    857 H           4.4497   -2.0571    0.1836 H     1    ESP         0.0059
    858 H          -0.7265    1.2774    2.8000 H     1    ESP        -0.0108
    859 H          -0.2656    1.2774    2.7618 H     1    ESP        -0.0120
    860 H          -0.4961    1.6765    2.7618 H     1    ESP        -0.0119
    861 H          -0.9569    1.6765    2.7618 H     1    ESP        -0.0103
    862 H          -1.1874    1.2774    2.7618 H     1    ESP        -0.0096
    863 H          -0.9569    0.8783    2.7618 H     1    ESP        -0.0100
    864 H          -0.4961    0.8783    2.7618 H     1    ESP        -0.0108
    865 H           0.1827    1.2774    2.6483 H     1    ESP        -0.0131
    866 H           0.0609    1.7320    2.6483 H     1    ESP        -0.0138
    867 H          -0.2719    2.0647    2.6483 H     1    ESP        -0.0130
    868 H          -0.7265    2.1866    2.6483 H     1    ESP        -0.0111
    869 H          -1.1811    2.0647    2.6483 H     1    ESP        -0.0091
    870 H          -1.5138    1.7320    2.6483 H     1    ESP        -0.0079
    871 H          -1.6357    1.2774    2.6483 H     1    ESP        -0.0081
    872 H          -1.5138    0.8228    2.6483 H     1    ESP        -0.0090
    873 H          -1.1811    0.4900    2.6483 H     1    ESP        -0.0095
    874 H          -0.7265    0.3682    2.6483 H     1    ESP        -0.0099
    875 H          -0.2719    0.4900    2.6483 H     1    ESP        -0.0105
    876 H           0.0609    0.8228    2.6483 H     1    ESP        -0.0116
    877 H           0.6062    1.2774    2.4625 H     1    ESP        -0.0145
    878 H           0.5258    1.7332    2.4625 H     1    ESP        -0.0158
    879 H           0.2944    2.1340    2.4625 H     1    ESP        -0.0155
    880 H          -0.0602    2.4315    2.4625 H     1    ESP        -0.0140
    881 H          -0.4951    2.5898    2.4625 H     1    ESP        -0.0120
    882 H          -0.9579    2.5898    2.4625 H     1    ESP        -0.0096
    883 H          -1.3928    2.4315    2.4625 H     1    ESP        -0.0072
    884 H          -1.7474    2.1340    2.4625 H     1    ESP        -0.0056
    885 H          -1.9788    1.7332    2.4625 H     1    ESP        -0.0052
    886 H          -2.0591    1.2774    2.4625 H     1    ESP        -0.0063
    887 H          -1.9788    0.8216    2.4625 H     1    ESP        -0.0082
    888 H          -1.7474    0.4208    2.4625 H     1    ESP        -0.0095
    889 H          -1.3928    0.1233    2.4625 H     1    ESP        -0.0097
    890 H          -0.9579   -0.0350    2.4625 H     1    ESP        -0.0096
    891 H          -0.4951   -0.0350    2.4625 H     1    ESP        -0.0100
    892 H          -0.0602    0.1233    2.4625 H     1    ESP        -0.0101
    893 H           0.2944    0.4208    2.4625 H     1    ESP        -0.0105
    894 H           0.5258    0.8216    2.4625 H     1    ESP        -0.0122
    895 H           0.9933    1.2774    2.2096 H     1    ESP        -0.0171
    896 H           0.9295    1.7414    2.2096 H     1    ESP        -0.0190
    897 H           0.7429    2.1710    2.2096 H     1    ESP        -0.0186
    898 H           0.4474    2.5343    2.2096 H     1    ESP        -0.0169
    899 H           0.0647    2.8044    2.2096 H     1    ESP        -0.0147
    900 H          -0.3766    2.9612    2.2096 H     1    ESP        -0.0122
    901 H          -0.8439    2.9932    2.2096 H     1    ESP        -0.0094
    902 H          -1.3024    2.8979    2.2096 H     1    ESP        -0.0066
    903 H          -1.7183    2.6824    2.2096 H     1    ESP        -0.0040
    904 H          -2.0606    2.3627    2.2096 H     1    ESP        -0.0021
    905 H          -2.3039    1.9626    2.2096 H     1    ESP        -0.0015
    906 H          -2.4303    1.5116    2.2096 H     1    ESP        -0.0026
    907 H          -1.3024   -0.3431    2.2096 H     1    ESP        -0.0105
    908 H           0.9295    0.8134    2.2096 H     1    ESP        -0.0130
    909 H           1.2819    1.7358    1.8964 H     1    ESP        -0.0252
    910 H           1.1295    2.1712    1.8964 H     1    ESP        -0.0238
    911 H           0.8841    2.5618    1.8964 H     1    ESP        -0.0210
    912 H           0.5579    2.8880    1.8964 H     1    ESP        -0.0179
    913 H           0.1673    3.1334    1.8964 H     1    ESP        -0.0151
    914 H          -0.2681    3.2858    1.8964 H     1    ESP        -0.0122
    915 H          -0.7265    3.3374    1.8964 H     1    ESP        -0.0093
    916 H          -1.1849    3.2858    1.8964 H     1    ESP        -0.0062
    917 H          -1.6203    3.1334    1.8964 H     1    ESP        -0.0031
    918 H          -2.0109    2.8880    1.8964 H     1    ESP        -0.0002
    919 H          -2.3371    2.5618    1.8964 H     1    ESP         0.0021
    920 H          -2.5825    2.1712    1.8964 H     1    ESP         0.0034
    921 H           1.2225    2.5797    1.5315 H     1    ESP        -0.0271
    922 H           0.9310    2.9349    1.5315 H     1    ESP        -0.0220
    923 H           0.5758    3.2264    1.5315 H     1    ESP        -0.0180
    924 H           0.1705    3.4430    1.5315 H     1    ESP        -0.0147
    925 H          -0.2692    3.5764    1.5315 H     1    ESP        -0.0116
    926 H          -0.7265    3.6215    1.5315 H     1    ESP        -0.0084
    927 H          -1.1838    3.5764    1.5315 H     1    ESP        -0.0051
    928 H          -1.6235    3.4430    1.5315 H     1    ESP        -0.0017
    929 H          -2.0288    3.2264    1.5315 H     1    ESP         0.0017
    930 H          -2.3840    2.9349    1.5315 H     1    ESP         0.0050
    931 H          -2.6755    2.5797    1.5315 H     1    ESP         0.0078
    932 H           1.2045    2.9645    1.1247 H     1    ESP        -0.0272
    933 H           0.8722    3.2821    1.1247 H     1    ESP        -0.0212
    934 H           0.4886    3.5354    1.1247 H     1    ESP        -0.0169
    935 H           0.0659    3.7161    1.1247 H     1    ESP        -0.0134
    936 H          -0.3823    3.8184    1.1247 H     1    ESP        -0.0101
    937 H          -0.8415    3.8390    1.1247 H     1    ESP        -0.0067
    938 H          -1.2971    3.7773    1.1247 H     1    ESP        -0.0032
    939 H          -1.7343    3.6352    1.1247 H     1    ESP         0.0005
    940 H          -2.1391    3.4174    1.1247 H     1    ESP         0.0043
    941 H          -2.4985    3.1308    1.1247 H     1    ESP         0.0082
    942 H          -2.8009    2.7846    1.1247 H     1    ESP         0.0123
    943 H           1.3853    2.9826    0.6874 H     1    ESP        -0.0325
    944 H           1.0668    3.3150    0.6874 H     1    ESP        -0.0243
    945 H           0.6966    3.5887    0.6874 H     1    ESP        -0.0188
    946 H           0.2856    3.7960    0.6874 H     1    ESP        -0.0147
    947 H          -0.1546    3.9308    0.6874 H     1    ESP        -0.0112
    948 H          -0.6113    3.9893    0.6874 H     1    ESP        -0.0078
    949 H          -1.0713    3.9697    0.6874 H     1    ESP        -0.0043
    950 H          -1.5213    3.8727    0.6874 H     1    ESP        -0.0005
    951 H          -1.9485    3.7011    0.6874 H     1    ESP         0.0035
    952 H          -2.3405    3.4597    0.6874 H     1    ESP         0.0077
    953 H          -2.6861    3.1555    0.6874 H     1    ESP         0.0123
    954 H           1.4756    2.9913    0.2312 H     1    ESP        -0.0362
    955 H           1.1634    3.3304    0.2312 H     1    ESP        -0.0262
    956 H           0.7997    3.6135    0.2312 H     1    ESP        -0.0200
    957 H           0.3944    3.8328    0.2312 H     1    ESP        -0.0155
    958 H          -0.0415    3.9824    0.2312 H     1    ESP        -0.0118
    959 H          -0.4961    4.0583    0.2312 H     1    ESP        -0.0084
    960 H          -0.9569    4.0583    0.2312 H     1    ESP        -0.0048
    961 H          -1.4115    3.9824    0.2312 H     1    ESP        -0.0011
    962 H          -1.8474    3.8328    0.2312 H     1    ESP         0.0030
    963 H          -2.2527    3.6135    0.2312 H     1    ESP         0.0073
    964 H          -2.6164    3.3304    0.2312 H     1    ESP         0.0121
    965 H          -2.9285    2.9913    0.2312 H     1    ESP         0.0178
    966 H           1.4756    2.9913   -0.2312 H     1    ESP        -0.0362
    967 H           1.1634    3.3304   -0.2312 H     1    ESP        -0.0262
    968 H           0.7997    3.6135   -0.2312 H     1    ESP        -0.0200
    969 H           0.3944    3.8328   -0.2312 H     1    ESP        -0.0155
    970 H          -0.0415    3.9824   -0.2312 H     1    ESP        -0.0118
    971 H          -0.4961    4.0583   -0.2312 H     1    ESP        -0.0084
    972 H          -0.9569    4.0583   -0.2312 H     1    ESP        -0.0048
    973 H          -1.4115    3.9824   -0.2312 H     1    ESP        -0.0011
    974 H          -1.8474    3.8328   -0.2312 H     1    ESP         0.0030
    975 H          -2.2527    3.6135   -0.2312 H     1    ESP         0.0073
    976 H          -2.6164    3.3304   -0.2312 H     1    ESP         0.0121
    977 H          -2.9285    2.9913   -0.2312 H     1    ESP         0.0178
    978 H           1.3853    2.9826   -0.6874 H     1    ESP        -0.0325
    979 H           1.0668    3.3150   -0.6874 H     1    ESP        -0.0243
    980 H           0.6966    3.5887   -0.6874 H     1    ESP        -0.0188
    981 H           0.2856    3.7960   -0.6874 H     1    ESP        -0.0147
    982 H          -0.1546    3.9308   -0.6874 H     1    ESP        -0.0112
    983 H          -0.6113    3.9893   -0.6874 H     1    ESP        -0.0078
    984 H          -1.0713    3.9697   -0.6874 H     1    ESP        -0.0043
    985 H          -1.5213    3.8727   -0.6874 H     1    ESP        -0.0005
    986 H          -1.9485    3.7011   -0.6874 H     1    ESP         0.0035
    987 H          -2.3405    3.4597   -0.6874 H     1    ESP         0.0077
    988 H          -2.6861    3.1555   -0.6874 H     1    ESP         0.0123
    989 H           1.2045    2.9645   -1.1247 H     1    ESP        -0.0272
    990 H           0.8722    3.2821   -1.1247 H     1    ESP        -0.0212
    991 H           0.4886    3.5354   -1.1247 H     1    ESP        -0.0169
    992 H           0.0659    3.7161   -1.1247 H     1    ESP        -0.0134
    993 H          -0.3823    3.8184   -1.1247 H     1    ESP        -0.0101
    994 H          -0.8415    3.8390   -1.1247 H     1    ESP        -0.0067
    995 H          -1.2971    3.7773   -1.1247 H     1    ESP        -0.0032
    996 H          -1.7343    3.6352   -1.1247 H     1    ESP         0.0005
    997 H          -2.1391    3.4174   -1.1247 H     1    ESP         0.0043
    998 H          -2.4985    3.1308   -1.1247 H     1    ESP         0.0082
    999 H          -2.8009    2.7846   -1.1247 H     1    ESP         0.0123
   1000 H           1.2225    2.5797   -1.5315 H     1    ESP        -0.0271
   1001 H           0.9310    2.9349   -1.5315 H     1    ESP        -0.0220
   1002 H           0.5758    3.2264   -1.5315 H     1    ESP        -0.0180
   1003 H           0.1705    3.4430   -1.5315 H     1    ESP        -0.0147
   1004 H          -0.2692    3.5764   -1.5315 H     1    ESP        -0.0116
   1005 H          -0.7265    3.6215   -1.5315 H     1    ESP        -0.0084
   1006 H          -1.1838    3.5764   -1.5315 H     1    ESP        -0.0051
   1007 H          -1.6235    3.4430   -1.5315 H     1    ESP        -0.0017
   1008 H          -2.0288    3.2264   -1.5315 H     1    ESP         0.0017
   1009 H          -2.3840    2.9349   -1.5315 H     1    ESP         0.0050
   1010 H          -2.6755    2.5797   -1.5315 H     1    ESP         0.0078
   1011 H           1.2819    1.7358   -1.8964 H     1    ESP        -0.0252
   1012 H           1.1295    2.1712   -1.8964 H     1    ESP        -0.0238
   1013 H           0.8841    2.5618   -1.8964 H     1    ESP        -0.0210
   1014 H           0.5579    2.8880   -1.8964 H     1    ESP        -0.0179
   1015 H           0.1673    3.1334   -1.8964 H     1    ESP        -0.0151
   1016 H          -0.2681    3.2858   -1.8964 H     1    ESP        -0.0122
   1017 H          -0.7265    3.3374   -1.8964 H     1    ESP        -0.0093
   1018 H          -1.1849    3.2858   -1.8964 H     1    ESP        -0.0062
   1019 H          -1.6203    3.1334   -1.8964 H     1    ESP        -0.0031
   1020 H          -2.0109    2.8880   -1.8964 H     1    ESP        -0.0002
   1021 H          -2.3371    2.5618   -1.8964 H     1    ESP         0.0021
   1022 H          -2.5825    2.1712   -1.8964 H     1    ESP         0.0034
   1023 H           0.9933    1.2774   -2.2096 H     1    ESP        -0.0171
   1024 H           0.9295    1.7414   -2.2096 H     1    ESP        -0.0190
   1025 H           0.7429    2.1710   -2.2096 H     1    ESP        -0.0186
   1026 H           0.4474    2.5343   -2.2096 H     1    ESP        -0.0169
   1027 H           0.0647    2.8044   -2.2096 H     1    ESP        -0.0147
   1028 H          -0.3766    2.9612   -2.2096 H     1    ESP        -0.0122
   1029 H          -0.8439    2.9932   -2.2096 H     1    ESP        -0.0094
   1030 H          -1.3024    2.8979   -2.2096 H     1    ESP        -0.0066
   1031 H          -1.7183    2.6824   -2.2096 H     1    ESP        -0.0040
   1032 H          -2.0606    2.3627   -2.2096 H     1    ESP        -0.0021
   1033 H          -2.3039    1.9626   -2.2096 H     1    ESP        -0.0015
   1034 H          -2.4303    1.5116   -2.2096 H     1    ESP        -0.0026
   1035 H          -1.3024   -0.3431   -2.2096 H     1    ESP        -0.0105
   1036 H           0.9295    0.8134   -2.2096 H     1    ESP        -0.0130
   1037 H           0.6062    1.2774   -2.4625 H     1    ESP        -0.0145
   1038 H           0.5258    1.7332   -2.4625 H     1    ESP        -0.0158
   1039 H           0.2944    2.1340   -2.4625 H     1    ESP        -0.0155
   1040 H          -0.0602    2.4315   -2.4625 H     1    ESP        -0.0140
   1041 H          -0.4951    2.5898   -2.4625 H     1    ESP        -0.0120
   1042 H          -0.9579    2.5898   -2.4625 H     1    ESP        -0.0096
   1043 H          -1.3928    2.4315   -2.4625 H     1    ESP        -0.0072
   1044 H          -1.7474    2.1340   -2.4625 H     1    ESP        -0.0056
   1045 H          -1.9788    1.7332   -2.4625 H     1    ESP        -0.0052
   1046 H          -2.0591    1.2774   -2.4625 H     1    ESP        -0.0063
   1047 H          -1.9788    0.8216   -2.4625 H     1    ESP        -0.0082
   1048 H          -1.7474    0.4208   -2.4625 H     1    ESP        -0.0095
   1049 H          -1.3928    0.1233   -2.4625 H     1    ESP        -0.0097
   1050 H          -0.9579   -0.0350   -2.4625 H     1    ESP        -0.0096
   1051 H          -0.4951   -0.0350   -2.4625 H     1    ESP        -0.0100
   1052 H          -0.0602    0.1233   -2.4625 H     1    ESP        -0.0101
   1053 H           0.2944    0.4208   -2.4625 H     1    ESP        -0.0105
   1054 H           0.5258    0.8216   -2.4625 H     1    ESP        -0.0122
   1055 H           0.1827    1.2774   -2.6483 H     1    ESP        -0.0131
   1056 H           0.0609    1.7320   -2.6483 H     1    ESP        -0.0138
   1057 H          -0.2719    2.0647   -2.6483 H     1    ESP        -0.0130
   1058 H          -0.7265    2.1866   -2.6483 H     1    ESP        -0.0111
   1059 H          -1.1811    2.0647   -2.6483 H     1    ESP        -0.0091
   1060 H          -1.5138    1.7320   -2.6483 H     1    ESP        -0.0079
   1061 H          -1.6357    1.2774   -2.6483 H     1    ESP        -0.0081
   1062 H          -1.5138    0.8228   -2.6483 H     1    ESP        -0.0090
   1063 H          -1.1811    0.4900   -2.6483 H     1    ESP        -0.0095
   1064 H          -0.7265    0.3682   -2.6483 H     1    ESP        -0.0099
   1065 H          -0.2719    0.4900   -2.6483 H     1    ESP        -0.0105
   1066 H           0.0609    0.8228   -2.6483 H     1    ESP        -0.0116
   1067 H          -0.2656    1.2774   -2.7618 H     1    ESP        -0.0120
   1068 H          -0.4961    1.6765   -2.7618 H     1    ESP        -0.0119
   1069 H          -0.9569    1.6765   -2.7618 H     1    ESP        -0.0103
   1070 H          -1.1874    1.2774   -2.7618 H     1    ESP        -0.0096
   1071 H          -0.9569    0.8783   -2.7618 H     1    ESP        -0.0100
   1072 H          -0.4961    0.8783   -2.7618 H     1    ESP        -0.0108
   1073 H          -0.7265    1.2774   -2.8000 H     1    ESP        -0.0108
   1074 H          -2.2544    0.4737    2.4000 H     1    ESP        -0.0086
   1075 H          -2.4885    0.8792    2.3539 H     1    ESP        -0.0058
   1076 H          -2.7226    0.4737    2.3539 H     1    ESP        -0.0060
   1077 H          -2.4885    0.0682    2.3539 H     1    ESP        -0.0088
   1078 H          -2.0203    0.0682    2.3539 H     1    ESP        -0.0104
   1079 H          -2.7136    1.2691    2.2173 H     1    ESP        -0.0019
   1080 H          -3.0498    0.9329    2.2173 H     1    ESP        -0.0011
   1081 H          -3.1728    0.4737    2.2173 H     1    ESP        -0.0022
   1082 H          -3.0498    0.0145    2.2173 H     1    ESP        -0.0049
   1083 H          -2.9210    1.6284    1.9955 H     1    ESP         0.0030
   1084 H          -3.2758    1.3308    1.9955 H     1    ESP         0.0043
   1085 H          -3.5073    0.9297    1.9955 H     1    ESP         0.0041
   1086 H          -3.5877    0.4737    1.9955 H     1    ESP         0.0027
   1087 H          -3.5073    0.0177    1.9955 H     1    ESP         0.0003
   1088 H          -2.8227    2.0728    1.6971 H     1    ESP         0.0071
   1089 H          -3.9356    0.2426    1.6971 H     1    ESP         0.0072
   1090 H          -3.8109   -0.2024    1.6971 H     1    ESP         0.0049
   1091 H          -4.1295   -0.2088    1.3334 H     1    ESP         0.0111
   1092 H          -4.1295   -0.2088   -1.3334 H     1    ESP         0.0111
   1093 H          -2.8227    2.0728   -1.6971 H     1    ESP         0.0071
   1094 H          -3.9356    0.2426   -1.6971 H     1    ESP         0.0072
   1095 H          -3.8109   -0.2024   -1.6971 H     1    ESP         0.0049
   1096 H          -2.9210    1.6284   -1.9955 H     1    ESP         0.0030
   1097 H          -3.2758    1.3308   -1.9955 H     1    ESP         0.0043
   1098 H          -3.5073    0.9297   -1.9955 H     1    ESP         0.0041
   1099 H          -3.5877    0.4737   -1.9955 H     1    ESP         0.0027
   1100 H          -3.5073    0.0177   -1.9955 H     1    ESP         0.0003
   1101 H          -2.7136    1.2691   -2.2173 H     1    ESP        -0.0019
   1102 H          -3.0498    0.9329   -2.2173 H     1    ESP        -0.0011
   1103 H          -3.1728    0.4737   -2.2173 H     1    ESP        -0.0022
   1104 H          -3.0498    0.0145   -2.2173 H     1    ESP        -0.0049
   1105 H          -2.4885    0.8792   -2.3539 H     1    ESP        -0.0058
   1106 H          -2.7226    0.4737   -2.3539 H     1    ESP        -0.0060
   1107 H          -2.4885    0.0682   -2.3539 H     1    ESP        -0.0088
   1108 H          -2.0203    0.0682   -2.3539 H     1    ESP        -0.0104
   1109 H          -2.2544    0.4737   -2.4000 H     1    ESP        -0.0086
   1110 H          -2.1294   -0.8942    2.4000 H     1    ESP        -0.0079
   1111 H          -1.6612   -0.8942    2.3539 H     1    ESP        -0.0091
   1112 H          -1.8953   -0.4887    2.3539 H     1    ESP        -0.0103
   1113 H          -2.3635   -0.4887    2.3539 H     1    ESP        -0.0091
   1114 H          -2.5976   -0.8942    2.3539 H     1    ESP        -0.0059
   1115 H          -2.3635   -1.2996    2.3539 H     1    ESP        -0.0045
   1116 H          -1.8953   -1.2996    2.3539 H     1    ESP        -0.0063
   1117 H          -1.3340   -0.4349    2.2173 H     1    ESP        -0.0106
   1118 H          -2.9248   -0.4349    2.2173 H     1    ESP        -0.0060
   1119 H          -3.0478   -0.8942    2.2173 H     1    ESP        -0.0028
   1120 H          -2.9248   -1.3534    2.2173 H     1    ESP        -0.0008
   1121 H          -2.5886   -1.6896    2.2173 H     1    ESP        -0.0004
   1122 H          -2.1294   -1.8126    2.2173 H     1    ESP        -0.0015
   1123 H          -1.6702   -1.6896    2.2173 H     1    ESP        -0.0040
   1124 H          -3.3823   -0.4381    1.9955 H     1    ESP        -0.0013
   1125 H          -3.4627   -0.8942    1.9955 H     1    ESP         0.0013
   1126 H          -3.3823   -1.3502    1.9955 H     1    ESP         0.0033
   1127 H          -3.1508   -1.7512    1.9955 H     1    ESP         0.0044
   1128 H          -2.7961   -2.0489    1.9955 H     1    ESP         0.0044
   1129 H          -2.3609   -2.2073    1.9955 H     1    ESP         0.0035
   1130 H          -1.8978   -2.2073    1.9955 H     1    ESP         0.0020
   1131 H          -3.8106   -0.6631    1.6971 H     1    ESP         0.0054
   1132 H          -3.8106   -1.1252    1.6971 H     1    ESP         0.0074
   1133 H          -2.6977   -2.4932    1.6971 H     1    ESP         0.0092
   1134 H          -2.2452   -2.5873    1.6971 H     1    ESP         0.0082
   1135 H          -4.1114   -0.6625    1.3334 H     1    ESP         0.0112
   1136 H          -2.2454   -2.8863    1.3334 H     1    ESP         0.0134
   1137 H          -4.2982   -0.4332    0.9184 H     1    ESP         0.0164
   1138 H          -2.1294   -3.2480    0.4682 H     1    ESP         0.0224
   1139 H          -2.1294   -3.2480   -0.4682 H     1    ESP         0.0224
   1140 H          -4.2982   -0.4332   -0.9184 H     1    ESP         0.0164
   1141 H          -4.1114   -0.6625   -1.3334 H     1    ESP         0.0112
   1142 H          -2.2454   -2.8863   -1.3334 H     1    ESP         0.0134
   1143 H          -3.8106   -0.6631   -1.6971 H     1    ESP         0.0054
   1144 H          -3.8106   -1.1252   -1.6971 H     1    ESP         0.0074
   1145 H          -2.6977   -2.4932   -1.6971 H     1    ESP         0.0092
   1146 H          -2.2452   -2.5873   -1.6971 H     1    ESP         0.0082
   1147 H          -3.3823   -0.4381   -1.9955 H     1    ESP        -0.0013
   1148 H          -3.4627   -0.8942   -1.9955 H     1    ESP         0.0013
   1149 H          -3.3823   -1.3502   -1.9955 H     1    ESP         0.0033
   1150 H          -3.1508   -1.7512   -1.9955 H     1    ESP         0.0044
   1151 H          -2.7961   -2.0489   -1.9955 H     1    ESP         0.0044
   1152 H          -2.3609   -2.2073   -1.9955 H     1    ESP         0.0035
   1153 H          -1.8978   -2.2073   -1.9955 H     1    ESP         0.0020
   1154 H          -1.3340   -0.4349   -2.2173 H     1    ESP        -0.0106
   1155 H          -2.9248   -0.4349   -2.2173 H     1    ESP        -0.0060
   1156 H          -3.0478   -0.8942   -2.2173 H     1    ESP        -0.0028
   1157 H          -2.9248   -1.3534   -2.2173 H     1    ESP        -0.0008
   1158 H          -2.5886   -1.6896   -2.2173 H     1    ESP        -0.0004
   1159 H          -2.1294   -1.8126   -2.2173 H     1    ESP        -0.0015
   1160 H          -1.6702   -1.6896   -2.2173 H     1    ESP        -0.0040
   1161 H          -1.6612   -0.8942   -2.3539 H     1    ESP        -0.0091
   1162 H          -1.8953   -0.4887   -2.3539 H     1    ESP        -0.0103
   1163 H          -2.3635   -0.4887   -2.3539 H     1    ESP        -0.0091
   1164 H          -2.5976   -0.8942   -2.3539 H     1    ESP        -0.0059
   1165 H          -2.3635   -1.2996   -2.3539 H     1    ESP        -0.0045
   1166 H          -1.8953   -1.2996   -2.3539 H     1    ESP        -0.0063
   1167 H          -2.1294   -0.8942   -2.4000 H     1    ESP        -0.0079
   1168 H          -0.7717   -1.3096    2.4000 H     1    ESP        -0.0063
   1169 H          -0.3035   -1.3096    2.3539 H     1    ESP        -0.0055
   1170 H          -0.5376   -0.9041    2.3539 H     1    ESP        -0.0087
   1171 H          -1.0058   -0.9041    2.3539 H     1    ESP        -0.0090
   1172 H          -1.2399   -1.3096    2.3539 H     1    ESP        -0.0069
   1173 H          -1.0058   -1.7150    2.3539 H     1    ESP        -0.0035
   1174 H          -0.5376   -1.7150    2.3539 H     1    ESP        -0.0027
   1175 H           0.1467   -1.3096    2.2173 H     1    ESP        -0.0037
   1176 H          -1.2309   -0.5142    2.2173 H     1    ESP        -0.0105
   1177 H          -1.5671   -1.7688    2.2173 H     1    ESP        -0.0034
   1178 H          -1.2309   -2.1050    2.2173 H     1    ESP         0.0000
   1179 H          -0.7717   -2.2280    2.2173 H     1    ESP         0.0019
   1180 H          -0.3125   -2.1050    2.2173 H     1    ESP         0.0019
   1181 H           0.0237   -1.7688    2.2173 H     1    ESP        -0.0001
   1182 H          -1.4384   -2.4643    1.9955 H     1    ESP         0.0043
   1183 H          -1.0032   -2.6227    1.9955 H     1    ESP         0.0064
   1184 H          -0.5402   -2.6227    1.9955 H     1    ESP         0.0075
   1185 H          -0.1050   -2.4643    1.9955 H     1    ESP         0.0074
   1186 H           0.2497   -2.1666    1.9955 H     1    ESP         0.0059
   1187 H           0.4813   -1.7656    1.9955 H     1    ESP         0.0036
   1188 H          -1.7504   -2.6960    1.6971 H     1    ESP         0.0084
   1189 H          -1.3400   -2.9086    1.6971 H     1    ESP         0.0106
   1190 H           0.6783   -2.1913    1.6971 H     1    ESP         0.0111
   1191 H          -1.7695   -3.0377    1.3334 H     1    ESP         0.0143
   1192 H          -1.7695   -3.0377   -1.3334 H     1    ESP         0.0143
   1193 H          -1.7504   -2.6960   -1.6971 H     1    ESP         0.0084
   1194 H          -1.3400   -2.9086   -1.6971 H     1    ESP         0.0106
   1195 H           0.6783   -2.1913   -1.6971 H     1    ESP         0.0111
   1196 H          -1.4384   -2.4643   -1.9955 H     1    ESP         0.0043
   1197 H          -1.0032   -2.6227   -1.9955 H     1    ESP         0.0064
   1198 H          -0.5402   -2.6227   -1.9955 H     1    ESP         0.0075
   1199 H          -0.1050   -2.4643   -1.9955 H     1    ESP         0.0074
   1200 H           0.2497   -2.1666   -1.9955 H     1    ESP         0.0059
   1201 H           0.4813   -1.7656   -1.9955 H     1    ESP         0.0036
   1202 H           0.1467   -1.3096   -2.2173 H     1    ESP        -0.0037
   1203 H          -1.2309   -0.5142   -2.2173 H     1    ESP        -0.0105
   1204 H          -1.5671   -1.7688   -2.2173 H     1    ESP        -0.0034
   1205 H          -1.2309   -2.1050   -2.2173 H     1    ESP         0.0000
   1206 H          -0.7717   -2.2280   -2.2173 H     1    ESP         0.0019
   1207 H          -0.3125   -2.1050   -2.2173 H     1    ESP         0.0019
   1208 H           0.0237   -1.7688   -2.2173 H     1    ESP        -0.0001
   1209 H          -0.3035   -1.3096   -2.3539 H     1    ESP        -0.0055
   1210 H          -0.5376   -0.9041   -2.3539 H     1    ESP        -0.0087
   1211 H          -1.0058   -0.9041   -2.3539 H     1    ESP        -0.0090
   1212 H          -1.2399   -1.3096   -2.3539 H     1    ESP        -0.0069
   1213 H          -1.0058   -1.7150   -2.3539 H     1    ESP        -0.0035
   1214 H          -0.5376   -1.7150   -2.3539 H     1    ESP        -0.0027
   1215 H          -0.7717   -1.3096   -2.4000 H     1    ESP        -0.0063
   1216 H           0.1200   -0.2552    2.4000 H     1    ESP        -0.0089
   1217 H           0.5882   -0.2552    2.3539 H     1    ESP        -0.0063
   1218 H           0.3541    0.1503    2.3539 H     1    ESP        -0.0094
   1219 H          -0.3482   -0.2552    2.3539 H     1    ESP        -0.0101
   1220 H          -0.1141   -0.6607    2.3539 H     1    ESP        -0.0087
   1221 H           0.3541   -0.6607    2.3539 H     1    ESP        -0.0060
   1222 H           0.5792   -1.0506    2.2173 H     1    ESP        -0.0016
   1223 H           0.7867   -1.4100    1.9955 H     1    ESP         0.0040
   1224 H           0.7867   -1.4100   -1.9955 H     1    ESP         0.0040
   1225 H           0.5792   -1.0506   -2.2173 H     1    ESP        -0.0016
   1226 H           0.5882   -0.2552   -2.3539 H     1    ESP        -0.0063
   1227 H           0.3541    0.1503   -2.3539 H     1    ESP        -0.0094
   1228 H          -0.3482   -0.2552   -2.3539 H     1    ESP        -0.0101
   1229 H          -0.1141   -0.6607   -2.3539 H     1    ESP        -0.0087
   1230 H           0.3541   -0.6607   -2.3539 H     1    ESP        -0.0060
   1231 H           0.1200   -0.2552   -2.4000 H     1    ESP        -0.0089
   1232 H           1.5912   -0.2386    2.4000 H     1    ESP        -0.0016
   1233 H           2.0594   -0.2386    2.3539 H     1    ESP        -0.0015
   1234 H           1.8253    0.1669    2.3539 H     1    ESP        -0.0070
   1235 H           1.3570    0.1669    2.3539 H     1    ESP        -0.0064
   1236 H           1.1229   -0.2386    2.3539 H     1    ESP        -0.0028
   1237 H           1.3570   -0.6440    2.3539 H     1    ESP         0.0018
   1238 H           1.8253   -0.6440    2.3539 H     1    ESP         0.0034
   1239 H           2.5096   -0.2386    2.2173 H     1    ESP        -0.0020
   1240 H           2.3865    0.2207    2.2173 H     1    ESP        -0.0105
   1241 H           1.5912    0.6799    2.2173 H     1    ESP        -0.0142
   1242 H           1.1319    0.5568    2.2173 H     1    ESP        -0.0107
   1243 H           1.1319   -1.0339    2.2173 H     1    ESP         0.0038
   1244 H           0.9245   -1.3933    1.9955 H     1    ESP         0.0054
   1245 H           0.9245   -1.3933   -1.9955 H     1    ESP         0.0054
   1246 H           2.5096   -0.2386   -2.2173 H     1    ESP        -0.0020
   1247 H           2.3865    0.2207   -2.2173 H     1    ESP        -0.0105
   1248 H           1.5912    0.6799   -2.2173 H     1    ESP        -0.0142
   1249 H           1.1319    0.5568   -2.2173 H     1    ESP        -0.0107
   1250 H           1.1319   -1.0339   -2.2173 H     1    ESP         0.0038
   1251 H           2.0594   -0.2386   -2.3539 H     1    ESP        -0.0015
   1252 H           1.8253    0.1669   -2.3539 H     1    ESP        -0.0070
   1253 H           1.3570    0.1669   -2.3539 H     1    ESP        -0.0064
   1254 H           1.1229   -0.2386   -2.3539 H     1    ESP        -0.0028
   1255 H           1.3570   -0.6440   -2.3539 H     1    ESP         0.0018
   1256 H           1.8253   -0.6440   -2.3539 H     1    ESP         0.0034
   1257 H           1.5912   -0.2386   -2.4000 H     1    ESP        -0.0016
   1258 H           1.4288   -1.5599    2.2173 H     1    ESP         0.0074
   1259 H           1.5519   -2.0191    2.2173 H     1    ESP         0.0085
   1260 H           1.0139   -1.5599    1.9955 H     1    ESP         0.0069
   1261 H           1.0943   -2.0160    1.9955 H     1    ESP         0.0087
   1262 H           1.3258   -2.4170    1.9955 H     1    ESP         0.0102
   1263 H           1.6806   -2.7147    1.9955 H     1    ESP         0.0105
   1264 H           0.7907   -2.2360    1.6971 H     1    ESP         0.0118
   1265 H           2.2314   -3.2530    1.6971 H     1    ESP         0.0112
   1266 H           2.6938   -3.5251    1.3334 H     1    ESP         0.0107
   1267 H           3.0324   -3.6687    0.9184 H     1    ESP         0.0098
   1268 H           3.4559   -3.4802    0.9184 H     1    ESP         0.0090
   1269 H           3.2480   -3.7346    0.4682 H     1    ESP         0.0091
   1270 H           3.6550   -3.5171    0.4682 H     1    ESP         0.0079
   1271 H           4.0117   -3.2244    0.4682 H     1    ESP         0.0073
   1272 H           4.7472   -1.5599    0.0000 H     1    ESP         0.0013
   1273 H           4.7039   -1.1057    0.0000 H     1    ESP        -0.0025
   1274 H           4.5753   -0.6679    0.0000 H     1    ESP        -0.0084
   1275 H           4.3663   -0.2624    0.0000 H     1    ESP        -0.0175
   1276 H           3.3442   -3.7430    0.0000 H     1    ESP         0.0087
   1277 H           3.7394   -3.5149    0.0000 H     1    ESP         0.0075
   1278 H           4.0842   -3.2161    0.0000 H     1    ESP         0.0067
   1279 H           4.3663   -2.8575    0.0000 H     1    ESP         0.0061
   1280 H           4.5753   -2.4519    0.0000 H     1    ESP         0.0052
   1281 H           4.7039   -2.0141    0.0000 H     1    ESP         0.0037
   1282 H           3.2480   -3.7346   -0.4682 H     1    ESP         0.0091
   1283 H           3.6550   -3.5171   -0.4682 H     1    ESP         0.0079
   1284 H           4.0117   -3.2244   -0.4682 H     1    ESP         0.0073
   1285 H           3.0324   -3.6687   -0.9184 H     1    ESP         0.0098
   1286 H           3.4559   -3.4802   -0.9184 H     1    ESP         0.0090
   1287 H           2.6938   -3.5251   -1.3334 H     1    ESP         0.0107
   1288 H           0.7907   -2.2360   -1.6971 H     1    ESP         0.0118
   1289 H           2.2314   -3.2530   -1.6971 H     1    ESP         0.0112
   1290 H           1.0139   -1.5599   -1.9955 H     1    ESP         0.0069
   1291 H           1.0943   -2.0160   -1.9955 H     1    ESP         0.0087
   1292 H           1.3258   -2.4170   -1.9955 H     1    ESP         0.0102
   1293 H           1.6806   -2.7147   -1.9955 H     1    ESP         0.0105
   1294 H           1.4288   -1.5599   -2.2173 H     1    ESP         0.0074
   1295 H           1.5519   -2.0191   -2.2173 H     1    ESP         0.0085
   1296 H           2.2063    0.8204    2.2400 H     1    ESP        -0.0197
   1297 H           2.6720    0.8204    2.1911 H     1    ESP        -0.0220
   1298 H           2.4391    1.2237    2.1911 H     1    ESP        -0.0257
   1299 H           1.9734    1.2237    2.1911 H     1    ESP        -0.0237
   1300 H           1.7405    0.8204    2.1911 H     1    ESP        -0.0175
   1301 H           2.4391    0.4171    2.1911 H     1    ESP        -0.0148
   1302 H           3.1173    0.8204    2.0463 H     1    ESP        -0.0245
   1303 H           2.9953    1.2759    2.0463 H     1    ESP        -0.0288
   1304 H           2.6618    1.6094    2.0463 H     1    ESP        -0.0305
   1305 H           2.2063    1.7315    2.0463 H     1    ESP        -0.0300
   1306 H           1.7507    1.6094    2.0463 H     1    ESP        -0.0271
   1307 H           1.4172    1.2759    2.0463 H     1    ESP        -0.0219
   1308 H           2.9953    0.3648    2.0463 H     1    ESP        -0.0171
   1309 H           3.5229    0.8204    1.8122 H     1    ESP        -0.0272
   1310 H           3.4435    1.2707    1.8122 H     1    ESP        -0.0313
   1311 H           3.2149    1.6667    1.8122 H     1    ESP        -0.0336
   1312 H           2.8646    1.9606    1.8122 H     1    ESP        -0.0344
   1313 H           2.4349    2.1170    1.8122 H     1    ESP        -0.0343
   1314 H           1.9776    2.1170    1.8122 H     1    ESP        -0.0329
   1315 H           1.5479    1.9606    1.8122 H     1    ESP        -0.0299
   1316 H           3.4435    0.3701    1.8122 H     1    ESP        -0.0203
   1317 H           3.8709    0.8204    1.4989 H     1    ESP        -0.0299
   1318 H           3.8092    1.2695    1.4989 H     1    ESP        -0.0338
   1319 H           3.6286    1.6853    1.4989 H     1    ESP        -0.0360
   1320 H           3.3425    2.0370    1.4989 H     1    ESP        -0.0371
   1321 H           2.9721    2.2984    1.4989 H     1    ESP        -0.0375
   1322 H           2.5449    2.4502    1.4989 H     1    ESP        -0.0373
   1323 H           2.0927    2.4812    1.4989 H     1    ESP        -0.0364
   1324 H           1.6488    2.3889    1.4989 H     1    ESP        -0.0343
   1325 H           3.8092    0.3713    1.4989 H     1    ESP        -0.0236
   1326 H           4.1462    0.8204    1.1200 H     1    ESP        -0.0324
   1327 H           4.0898    1.2846    1.1200 H     1    ESP        -0.0361
   1328 H           3.9240    1.7219    1.1200 H     1    ESP        -0.0382
   1329 H           3.6583    2.1068    1.1200 H     1    ESP        -0.0392
   1330 H           3.3082    2.4169    1.1200 H     1    ESP        -0.0397
   1331 H           2.8942    2.6342    1.1200 H     1    ESP        -0.0398
   1332 H           2.4401    2.7461    1.1200 H     1    ESP        -0.0394
   1333 H           1.9724    2.7461    1.1200 H     1    ESP        -0.0383
   1334 H           1.5184    2.6342    1.1200 H     1    ESP        -0.0358
   1335 H           4.0898    0.3561    1.1200 H     1    ESP        -0.0265
   1336 H           4.3366    0.8204    0.6922 H     1    ESP        -0.0344
   1337 H           4.2868    1.2784    0.6922 H     1    ESP        -0.0377
   1338 H           4.1397    1.7149    0.6922 H     1    ESP        -0.0397
   1339 H           3.9022    2.1096    0.6922 H     1    ESP        -0.0407
   1340 H           3.5854    2.4441    0.6922 H     1    ESP        -0.0411
   1341 H           3.2041    2.7026    0.6922 H     1    ESP        -0.0413
   1342 H           2.7762    2.8731    0.6922 H     1    ESP        -0.0412
   1343 H           2.3216    2.9476    0.6922 H     1    ESP        -0.0407
   1344 H           1.8616    2.9227    0.6922 H     1    ESP        -0.0394
   1345 H           4.2868    0.3624    0.6922 H     1    ESP        -0.0291
   1346 H           4.4340    0.8204    0.2341 H     1    ESP        -0.0355
   1347 H           4.3853    1.2836    0.2341 H     1    ESP        -0.0387
   1348 H           4.2414    1.7265    0.2341 H     1    ESP        -0.0405
   1349 H           4.0085    2.1298    0.2341 H     1    ESP        -0.0414
   1350 H           3.6969    2.4759    0.2341 H     1    ESP        -0.0419
   1351 H           3.3201    2.7497    0.2341 H     1    ESP        -0.0420
   1352 H           2.8947    2.9391    0.2341 H     1    ESP        -0.0420
   1353 H           2.4391    3.0359    0.2341 H     1    ESP        -0.0417
   1354 H           1.9734    3.0359    0.2341 H     1    ESP        -0.0406
   1355 H           1.5179    2.9391    0.2341 H     1    ESP        -0.0381
   1356 H           4.2414   -0.0857    0.2341 H     1    ESP        -0.0231
   1357 H           4.3853    0.3572    0.2341 H     1    ESP        -0.0305
   1358 H           4.4340    0.8204   -0.2341 H     1    ESP        -0.0355
   1359 H           4.3853    1.2836   -0.2341 H     1    ESP        -0.0387
   1360 H           4.2414    1.7265   -0.2341 H     1    ESP        -0.0405
   1361 H           4.0085    2.1298   -0.2341 H     1    ESP        -0.0414
   1362 H           3.6969    2.4759   -0.2341 H     1    ESP        -0.0419
   1363 H           3.3201    2.7497   -0.2341 H     1    ESP        -0.0420
   1364 H           2.8947    2.9391   -0.2341 H     1    ESP        -0.0420
   1365 H           2.4391    3.0359   -0.2341 H     1    ESP        -0.0417
   1366 H           1.9734    3.0359   -0.2341 H     1    ESP        -0.0406
   1367 H           1.5179    2.9391   -0.2341 H     1    ESP        -0.0381
   1368 H           4.2414   -0.0857   -0.2341 H     1    ESP        -0.0231
   1369 H           4.3853    0.3572   -0.2341 H     1    ESP        -0.0305
   1370 H           4.3366    0.8204   -0.6922 H     1    ESP        -0.0344
   1371 H           4.2868    1.2784   -0.6922 H     1    ESP        -0.0377
   1372 H           4.1397    1.7149   -0.6922 H     1    ESP        -0.0397
   1373 H           3.9022    2.1096   -0.6922 H     1    ESP        -0.0407
   1374 H           3.5854    2.4441   -0.6922 H     1    ESP        -0.0411
   1375 H           3.2041    2.7026   -0.6922 H     1    ESP        -0.0413
   1376 H           2.7762    2.8731   -0.6922 H     1    ESP        -0.0412
   1377 H           2.3216    2.9476   -0.6922 H     1    ESP        -0.0407
   1378 H           1.8616    2.9227   -0.6922 H     1    ESP        -0.0394
   1379 H           4.2868    0.3624   -0.6922 H     1    ESP        -0.0291
   1380 H           4.1462    0.8204   -1.1200 H     1    ESP        -0.0324
   1381 H           4.0898    1.2846   -1.1200 H     1    ESP        -0.0361
   1382 H           3.9240    1.7219   -1.1200 H     1    ESP        -0.0382
   1383 H           3.6583    2.1068   -1.1200 H     1    ESP        -0.0392
   1384 H           3.3082    2.4169   -1.1200 H     1    ESP        -0.0397
   1385 H           2.8942    2.6342   -1.1200 H     1    ESP        -0.0398
   1386 H           2.4401    2.7461   -1.1200 H     1    ESP        -0.0394
   1387 H           1.9724    2.7461   -1.1200 H     1    ESP        -0.0383
   1388 H           1.5184    2.6342   -1.1200 H     1    ESP        -0.0358
   1389 H           4.0898    0.3561   -1.1200 H     1    ESP        -0.0265
   1390 H           3.8709    0.8204   -1.4989 H     1    ESP        -0.0299
   1391 H           3.8092    1.2695   -1.4989 H     1    ESP        -0.0338
   1392 H           3.6286    1.6853   -1.4989 H     1    ESP        -0.0360
   1393 H           3.3425    2.0370   -1.4989 H     1    ESP        -0.0371
   1394 H           2.9721    2.2984   -1.4989 H     1    ESP        -0.0375
   1395 H           2.5449    2.4502   -1.4989 H     1    ESP        -0.0373
   1396 H           2.0927    2.4812   -1.4989 H     1    ESP        -0.0364
   1397 H           1.6488    2.3889   -1.4989 H     1    ESP        -0.0343
   1398 H           3.8092    0.3713   -1.4989 H     1    ESP        -0.0236
   1399 H           3.5229    0.8204   -1.8122 H     1    ESP        -0.0272
   1400 H           3.4435    1.2707   -1.8122 H     1    ESP        -0.0313
   1401 H           3.2149    1.6667   -1.8122 H     1    ESP        -0.0336
   1402 H           2.8646    1.9606   -1.8122 H     1    ESP        -0.0344
   1403 H           2.4349    2.1170   -1.8122 H     1    ESP        -0.0343
   1404 H           1.9776    2.1170   -1.8122 H     1    ESP        -0.0329
   1405 H           1.5479    1.9606   -1.8122 H     1    ESP        -0.0299
   1406 H           3.4435    0.3701   -1.8122 H     1    ESP        -0.0203
   1407 H           3.1173    0.8204   -2.0463 H     1    ESP        -0.0245
   1408 H           2.9953    1.2759   -2.0463 H     1    ESP        -0.0288
   1409 H           2.6618    1.6094   -2.0463 H     1    ESP        -0.0305
   1410 H           2.2063    1.7315   -2.0463 H     1    ESP        -0.0300
   1411 H           1.7507    1.6094   -2.0463 H     1    ESP        -0.0271
   1412 H           1.4172    1.2759   -2.0463 H     1    ESP        -0.0219
   1413 H           2.9953    0.3648   -2.0463 H     1    ESP        -0.0171
   1414 H           2.6720    0.8204   -2.1911 H     1    ESP        -0.0220
   1415 H           2.4391    1.2237   -2.1911 H     1    ESP        -0.0257
   1416 H           1.9734    1.2237   -2.1911 H     1    ESP        -0.0237
   1417 H           1.7405    0.8204   -2.1911 H     1    ESP        -0.0175
   1418 H           2.4391    0.4171   -2.1911 H     1    ESP        -0.0148
   1419 H           2.2063    0.8204   -2.2400 H     1    ESP        -0.0197
   1420 H          -3.1710    1.9423    1.7001 H     1    ESP         0.0091
   1421 H          -3.6171    1.8227    1.7001 H     1    ESP         0.0112
   1422 H          -3.9437    1.4961    1.7001 H     1    ESP         0.0120
   1423 H          -4.0633    1.0500    1.7001 H     1    ESP         0.0113
   1424 H          -3.9437    0.6039    1.7001 H     1    ESP         0.0089
   1425 H          -3.0535    2.3178    1.4371 H     1    ESP         0.0119
   1426 H          -3.5194    2.2746    1.4371 H     1    ESP         0.0136
   1427 H          -3.9383    2.0660    1.4371 H     1    ESP         0.0149
   1428 H          -4.2535    1.7202    1.4371 H     1    ESP         0.0155
   1429 H          -4.4225    1.2839    1.4371 H     1    ESP         0.0153
   1430 H          -4.4225    0.8160    1.4371 H     1    ESP         0.0143
   1431 H          -4.2535    0.3797    1.4371 H     1    ESP         0.0125
   1432 H          -3.0529    2.6257    1.0907 H     1    ESP         0.0150
   1433 H          -3.5226    2.5905    1.0907 H     1    ESP         0.0159
   1434 H          -3.9611    2.4184    1.0907 H     1    ESP         0.0170
   1435 H          -4.3293    2.1248    1.0907 H     1    ESP         0.0177
   1436 H          -4.5947    1.7356    1.0907 H     1    ESP         0.0180
   1437 H          -4.7335    1.2855    1.0907 H     1    ESP         0.0179
   1438 H          -4.7335    0.8145    1.0907 H     1    ESP         0.0173
   1439 H          -4.5947    0.3644    1.0907 H     1    ESP         0.0164
   1440 H          -3.1710    2.8452    0.6808 H     1    ESP         0.0173
   1441 H          -3.6356    2.7841    0.6808 H     1    ESP         0.0178
   1442 H          -4.0686    2.6047    0.6808 H     1    ESP         0.0186
   1443 H          -4.4404    2.3194    0.6808 H     1    ESP         0.0193
   1444 H          -4.7257    1.9476    0.6808 H     1    ESP         0.0197
   1445 H          -4.9051    1.5146    0.6808 H     1    ESP         0.0197
   1446 H          -4.9662    1.0500    0.6808 H     1    ESP         0.0194
   1447 H          -4.9051    0.5854    0.6808 H     1    ESP         0.0190
   1448 H          -4.7257    0.1524    0.6808 H     1    ESP         0.0188
   1449 H          -3.0513    2.9522    0.2314 H     1    ESP         0.0185
   1450 H          -3.5282    2.9222    0.2314 H     1    ESP         0.0185
   1451 H          -3.9825    2.7746    0.2314 H     1    ESP         0.0192
   1452 H          -4.3859    2.5186    0.2314 H     1    ESP         0.0199
   1453 H          -4.7130    2.1703    0.2314 H     1    ESP         0.0204
   1454 H          -4.9432    1.7516    0.2314 H     1    ESP         0.0205
   1455 H          -5.0620    1.2889    0.2314 H     1    ESP         0.0205
   1456 H          -5.0620    0.8111    0.2314 H     1    ESP         0.0202
   1457 H          -4.9432    0.3483    0.2314 H     1    ESP         0.0200
   1458 H          -4.7130   -0.0703    0.2314 H     1    ESP         0.0205
   1459 H          -3.0513    2.9522   -0.2314 H     1    ESP         0.0185
   1460 H          -3.5282    2.9222   -0.2314 H     1    ESP         0.0185
   1461 H          -3.9825    2.7746   -0.2314 H     1    ESP         0.0192
   1462 H          -4.3859    2.5186   -0.2314 H     1    ESP         0.0199
   1463 H          -4.7130    2.1703   -0.2314 H     1    ESP         0.0204
   1464 H          -4.9432    1.7516   -0.2314 H     1    ESP         0.0205
   1465 H          -5.0620    1.2889   -0.2314 H     1    ESP         0.0205
   1466 H          -5.0620    0.8111   -0.2314 H     1    ESP         0.0202
   1467 H          -4.9432    0.3483   -0.2314 H     1    ESP         0.0200
   1468 H          -4.7130   -0.0703   -0.2314 H     1    ESP         0.0205
   1469 H          -3.1710    2.8452   -0.6808 H     1    ESP         0.0173
   1470 H          -3.6356    2.7841   -0.6808 H     1    ESP         0.0178
   1471 H          -4.0686    2.6047   -0.6808 H     1    ESP         0.0186
   1472 H          -4.4404    2.3194   -0.6808 H     1    ESP         0.0193
   1473 H          -4.7257    1.9476   -0.6808 H     1    ESP         0.0197
   1474 H          -4.9051    1.5146   -0.6808 H     1    ESP         0.0197
   1475 H          -4.9662    1.0500   -0.6808 H     1    ESP         0.0194
   1476 H          -4.9051    0.5854   -0.6808 H     1    ESP         0.0190
   1477 H          -4.7257    0.1524   -0.6808 H     1    ESP         0.0188
   1478 H          -3.0529    2.6257   -1.0907 H     1    ESP         0.0150
   1479 H          -3.5226    2.5905   -1.0907 H     1    ESP         0.0159
   1480 H          -3.9611    2.4184   -1.0907 H     1    ESP         0.0170
   1481 H          -4.3293    2.1248   -1.0907 H     1    ESP         0.0177
   1482 H          -4.5947    1.7356   -1.0907 H     1    ESP         0.0180
   1483 H          -4.7335    1.2855   -1.0907 H     1    ESP         0.0179
   1484 H          -4.7335    0.8145   -1.0907 H     1    ESP         0.0173
   1485 H          -4.5947    0.3644   -1.0907 H     1    ESP         0.0164
   1486 H          -3.0535    2.3178   -1.4371 H     1    ESP         0.0119
   1487 H          -3.5194    2.2746   -1.4371 H     1    ESP         0.0136
   1488 H          -3.9383    2.0660   -1.4371 H     1    ESP         0.0149
   1489 H          -4.2535    1.7202   -1.4371 H     1    ESP         0.0155
   1490 H          -4.4225    1.2839   -1.4371 H     1    ESP         0.0153
   1491 H          -4.4225    0.8160   -1.4371 H     1    ESP         0.0143
   1492 H          -4.2535    0.3797   -1.4371 H     1    ESP         0.0125
   1493 H          -3.1710    1.9423   -1.7001 H     1    ESP         0.0091
   1494 H          -3.6171    1.8227   -1.7001 H     1    ESP         0.0112
   1495 H          -3.9437    1.4961   -1.7001 H     1    ESP         0.0120
   1496 H          -4.0633    1.0500   -1.7001 H     1    ESP         0.0113
   1497 H          -3.9437    0.6039   -1.7001 H     1    ESP         0.0089
   1498 H          -3.2029   -1.9732    1.8642 H     1    ESP         0.0071
   1499 H          -3.8654   -1.5752    1.7001 H     1    ESP         0.0099
   1500 H          -3.7459   -2.0214    1.7001 H     1    ESP         0.0113
   1501 H          -3.4193   -2.3480    1.7001 H     1    ESP         0.0114
   1502 H          -2.9732   -2.4675    1.7001 H     1    ESP         0.0102
   1503 H          -4.0557   -0.9050    1.4371 H     1    ESP         0.0105
   1504 H          -4.2247   -1.3413    1.4371 H     1    ESP         0.0125
   1505 H          -4.2247   -1.8092    1.4371 H     1    ESP         0.0138
   1506 H          -4.0557   -2.2455    1.4371 H     1    ESP         0.0146
   1507 H          -3.7404   -2.5913    1.4371 H     1    ESP         0.0147
   1508 H          -3.3216   -2.7998    1.4371 H     1    ESP         0.0143
   1509 H          -2.8557   -2.8430    1.4371 H     1    ESP         0.0135
   1510 H          -4.3968   -0.8896    1.0907 H     1    ESP         0.0148
   1511 H          -4.5357   -1.3397    1.0907 H     1    ESP         0.0156
   1512 H          -4.5357   -1.8107    1.0907 H     1    ESP         0.0163
   1513 H          -4.3968   -2.2608    1.0907 H     1    ESP         0.0168
   1514 H          -4.1315   -2.6500    1.0907 H     1    ESP         0.0171
   1515 H          -3.7632   -2.9437    1.0907 H     1    ESP         0.0171
   1516 H          -3.3248   -3.1157    1.0907 H     1    ESP         0.0169
   1517 H          -2.8551   -3.1509    1.0907 H     1    ESP         0.0166
   1518 H          -2.3959   -3.0461    1.0907 H     1    ESP         0.0165
   1519 H          -4.5279   -0.6776    0.6808 H     1    ESP         0.0181
   1520 H          -4.7072   -1.1106    0.6808 H     1    ESP         0.0176
   1521 H          -4.7684   -1.5752    0.6808 H     1    ESP         0.0177
   1522 H          -4.7072   -2.0399    0.6808 H     1    ESP         0.0181
   1523 H          -4.5279   -2.4728    0.6808 H     1    ESP         0.0185
   1524 H          -4.2426   -2.8446    0.6808 H     1    ESP         0.0186
   1525 H          -3.8708   -3.1299    0.6808 H     1    ESP         0.0187
   1526 H          -3.4378   -3.3093    0.6808 H     1    ESP         0.0186
   1527 H          -2.9732   -3.3705    0.6808 H     1    ESP         0.0188
   1528 H          -2.5085   -3.3093    0.6808 H     1    ESP         0.0194
   1529 H          -4.5152   -0.4549    0.2314 H     1    ESP         0.0212
   1530 H          -4.7453   -0.8736    0.2314 H     1    ESP         0.0191
   1531 H          -4.8641   -1.3363    0.2314 H     1    ESP         0.0186
   1532 H          -4.8641   -1.8141    0.2314 H     1    ESP         0.0188
   1533 H          -4.7453   -2.2769    0.2314 H     1    ESP         0.0191
   1534 H          -4.5152   -2.6955    0.2314 H     1    ESP         0.0193
   1535 H          -4.1881   -3.0438    0.2314 H     1    ESP         0.0194
   1536 H          -3.7847   -3.2998    0.2314 H     1    ESP         0.0195
   1537 H          -3.3303   -3.4475    0.2314 H     1    ESP         0.0196
   1538 H          -2.8535   -3.4775    0.2314 H     1    ESP         0.0200
   1539 H          -2.3842   -3.3879    0.2314 H     1    ESP         0.0216
   1540 H          -4.5152   -0.4549   -0.2314 H     1    ESP         0.0212
   1541 H          -4.7453   -0.8736   -0.2314 H     1    ESP         0.0191
   1542 H          -4.8641   -1.3363   -0.2314 H     1    ESP         0.0186
   1543 H          -4.8641   -1.8141   -0.2314 H     1    ESP         0.0188
   1544 H          -4.7453   -2.2769   -0.2314 H     1    ESP         0.0191
   1545 H          -4.5152   -2.6955   -0.2314 H     1    ESP         0.0193
   1546 H          -4.1881   -3.0438   -0.2314 H     1    ESP         0.0194
   1547 H          -3.7847   -3.2998   -0.2314 H     1    ESP         0.0195
   1548 H          -3.3303   -3.4475   -0.2314 H     1    ESP         0.0196
   1549 H          -2.8535   -3.4775   -0.2314 H     1    ESP         0.0200
   1550 H          -2.3842   -3.3879   -0.2314 H     1    ESP         0.0216
   1551 H          -4.5279   -0.6776   -0.6808 H     1    ESP         0.0181
   1552 H          -4.7072   -1.1106   -0.6808 H     1    ESP         0.0176
   1553 H          -4.7684   -1.5752   -0.6808 H     1    ESP         0.0177
   1554 H          -4.7072   -2.0399   -0.6808 H     1    ESP         0.0181
   1555 H          -4.5279   -2.4728   -0.6808 H     1    ESP         0.0185
   1556 H          -4.2426   -2.8446   -0.6808 H     1    ESP         0.0186
   1557 H          -3.8708   -3.1299   -0.6808 H     1    ESP         0.0187
   1558 H          -3.4378   -3.3093   -0.6808 H     1    ESP         0.0186
   1559 H          -2.9732   -3.3705   -0.6808 H     1    ESP         0.0188
   1560 H          -2.5085   -3.3093   -0.6808 H     1    ESP         0.0194
   1561 H          -4.3968   -0.8896   -1.0907 H     1    ESP         0.0148
   1562 H          -4.5357   -1.3397   -1.0907 H     1    ESP         0.0156
   1563 H          -4.5357   -1.8107   -1.0907 H     1    ESP         0.0163
   1564 H          -4.3968   -2.2608   -1.0907 H     1    ESP         0.0168
   1565 H          -4.1315   -2.6500   -1.0907 H     1    ESP         0.0171
   1566 H          -3.7632   -2.9437   -1.0907 H     1    ESP         0.0171
   1567 H          -3.3248   -3.1157   -1.0907 H     1    ESP         0.0169
   1568 H          -2.8551   -3.1509   -1.0907 H     1    ESP         0.0166
   1569 H          -2.3959   -3.0461   -1.0907 H     1    ESP         0.0165
   1570 H          -4.0557   -0.9050   -1.4371 H     1    ESP         0.0105
   1571 H          -4.2247   -1.3413   -1.4371 H     1    ESP         0.0125
   1572 H          -4.2247   -1.8092   -1.4371 H     1    ESP         0.0138
   1573 H          -4.0557   -2.2455   -1.4371 H     1    ESP         0.0146
   1574 H          -3.7404   -2.5913   -1.4371 H     1    ESP         0.0147
   1575 H          -3.3216   -2.7998   -1.4371 H     1    ESP         0.0143
   1576 H          -2.8557   -2.8430   -1.4371 H     1    ESP         0.0135
   1577 H          -3.8654   -1.5752   -1.7001 H     1    ESP         0.0099
   1578 H          -3.7459   -2.0214   -1.7001 H     1    ESP         0.0113
   1579 H          -3.4193   -2.3480   -1.7001 H     1    ESP         0.0114
   1580 H          -2.9732   -2.4675   -1.7001 H     1    ESP         0.0102
   1581 H          -3.2029   -1.9732   -1.8642 H     1    ESP         0.0071
   1582 H          -0.2362   -2.7472    1.8642 H     1    ESP         0.0107
   1583 H          -0.9121   -3.1220    1.7001 H     1    ESP         0.0131
   1584 H          -0.4660   -3.2416    1.7001 H     1    ESP         0.0148
   1585 H          -0.0198   -3.1220    1.7001 H     1    ESP         0.0153
   1586 H           0.3068   -2.7954    1.7001 H     1    ESP         0.0143
   1587 H          -1.2332   -3.3653    1.4371 H     1    ESP         0.0157
   1588 H          -0.8144   -3.5739    1.4371 H     1    ESP         0.0173
   1589 H          -0.3485   -3.6170    1.4371 H     1    ESP         0.0184
   1590 H           0.1016   -3.4890    1.4371 H     1    ESP         0.0192
   1591 H           0.4750   -3.2070    1.4371 H     1    ESP         0.0195
   1592 H          -1.6243   -3.4240    1.0907 H     1    ESP         0.0179
   1593 H          -1.2560   -3.7177    1.0907 H     1    ESP         0.0189
   1594 H          -0.8176   -3.8898    1.0907 H     1    ESP         0.0199
   1595 H          -0.3479   -3.9250    1.0907 H     1    ESP         0.0210
   1596 H           0.1113   -3.8202    1.0907 H     1    ESP         0.0221
   1597 H           0.5192   -3.5847    1.0907 H     1    ESP         0.0235
   1598 H          -2.0207   -3.2469    0.6808 H     1    ESP         0.0210
   1599 H          -1.7354   -3.6187    0.6808 H     1    ESP         0.0204
   1600 H          -1.3636   -3.9040    0.6808 H     1    ESP         0.0207
   1601 H          -0.9306   -4.0833    0.6808 H     1    ESP         0.0215
   1602 H          -0.4660   -4.1445    0.6808 H     1    ESP         0.0224
   1603 H          -0.0013   -4.0833    0.6808 H     1    ESP         0.0236
   1604 H           0.4317   -3.9040    0.6808 H     1    ESP         0.0254
   1605 H          -2.0079   -3.4696    0.2314 H     1    ESP         0.0224
   1606 H          -1.6809   -3.8179    0.2314 H     1    ESP         0.0216
   1607 H          -1.2775   -4.0739    0.2314 H     1    ESP         0.0218
   1608 H          -0.8231   -4.2215    0.2314 H     1    ESP         0.0225
   1609 H          -0.3463   -4.2515    0.2314 H     1    ESP         0.0236
   1610 H           0.1230   -4.1620    0.2314 H     1    ESP         0.0250
   1611 H          -2.0079   -3.4696   -0.2314 H     1    ESP         0.0224
   1612 H          -1.6809   -3.8179   -0.2314 H     1    ESP         0.0216
   1613 H          -1.2775   -4.0739   -0.2314 H     1    ESP         0.0218
   1614 H          -0.8231   -4.2215   -0.2314 H     1    ESP         0.0225
   1615 H          -0.3463   -4.2515   -0.2314 H     1    ESP         0.0236
   1616 H           0.1230   -4.1620   -0.2314 H     1    ESP         0.0250
   1617 H          -2.0207   -3.2469   -0.6808 H     1    ESP         0.0210
   1618 H          -1.7354   -3.6187   -0.6808 H     1    ESP         0.0204
   1619 H          -1.3636   -3.9040   -0.6808 H     1    ESP         0.0207
   1620 H          -0.9306   -4.0833   -0.6808 H     1    ESP         0.0215
   1621 H          -0.4660   -4.1445   -0.6808 H     1    ESP         0.0224
   1622 H          -0.0013   -4.0833   -0.6808 H     1    ESP         0.0236
   1623 H           0.4317   -3.9040   -0.6808 H     1    ESP         0.0254
   1624 H          -1.6243   -3.4240   -1.0907 H     1    ESP         0.0179
   1625 H          -1.2560   -3.7177   -1.0907 H     1    ESP         0.0189
   1626 H          -0.8176   -3.8898   -1.0907 H     1    ESP         0.0199
   1627 H          -0.3479   -3.9250   -1.0907 H     1    ESP         0.0210
   1628 H           0.1113   -3.8202   -1.0907 H     1    ESP         0.0221
   1629 H           0.5192   -3.5847   -1.0907 H     1    ESP         0.0235
   1630 H          -1.2332   -3.3653   -1.4371 H     1    ESP         0.0157
   1631 H          -0.8144   -3.5739   -1.4371 H     1    ESP         0.0173
   1632 H          -0.3485   -3.6170   -1.4371 H     1    ESP         0.0184
   1633 H           0.1016   -3.4890   -1.4371 H     1    ESP         0.0192
   1634 H           0.4750   -3.2070   -1.4371 H     1    ESP         0.0195
   1635 H          -0.9121   -3.1220   -1.7001 H     1    ESP         0.0131
   1636 H          -0.4660   -3.2416   -1.7001 H     1    ESP         0.0148
   1637 H          -0.0198   -3.1220   -1.7001 H     1    ESP         0.0153
   1638 H           0.3068   -2.7954   -1.7001 H     1    ESP         0.0143
   1639 H          -0.2362   -2.7472   -1.8642 H     1    ESP         0.0107
   1640 H           1.4822   -2.8455    1.8642 H     1    ESP         0.0118
   1641 H           0.8197   -2.4476    1.7001 H     1    ESP         0.0130
   1642 H           0.9392   -2.8937    1.7001 H     1    ESP         0.0146
   1643 H           1.2658   -3.2203    1.7001 H     1    ESP         0.0142
   1644 H           1.7119   -3.3399    1.7001 H     1    ESP         0.0127
   1645 H           0.6294   -3.1179    1.4371 H     1    ESP         0.0193
   1646 H           0.9447   -3.4636    1.4371 H     1    ESP         0.0179
   1647 H           1.3635   -3.6722    1.4371 H     1    ESP         0.0158
   1648 H           1.8294   -3.7154    1.4371 H     1    ESP         0.0136
   1649 H           2.2794   -3.5873    1.4371 H     1    ESP         0.0118
   1650 H           0.9219   -3.8160    1.0907 H     1    ESP         0.0204
   1651 H           1.3603   -3.9881    1.0907 H     1    ESP         0.0174
   1652 H           1.8300   -4.0233    1.0907 H     1    ESP         0.0149
   1653 H           2.2892   -3.9185    1.0907 H     1    ESP         0.0126
   1654 H           2.6971   -3.6830    1.0907 H     1    ESP         0.0110
   1655 H           0.8143   -4.0023    0.6808 H     1    ESP         0.0229
   1656 H           1.2473   -4.1817    0.6808 H     1    ESP         0.0193
   1657 H           1.7119   -4.2428    0.6808 H     1    ESP         0.0164
   1658 H           2.1766   -4.1817    0.6808 H     1    ESP         0.0140
   1659 H           2.6095   -4.0023    0.6808 H     1    ESP         0.0118
   1660 H           0.9004   -4.1722    0.2314 H     1    ESP         0.0229
   1661 H           1.3548   -4.3198    0.2314 H     1    ESP         0.0192
   1662 H           1.8316   -4.3498    0.2314 H     1    ESP         0.0163
   1663 H           2.3009   -4.2603    0.2314 H     1    ESP         0.0137
   1664 H           2.7332   -4.0569    0.2314 H     1    ESP         0.0116
   1665 H           0.9004   -4.1722   -0.2314 H     1    ESP         0.0229
   1666 H           1.3548   -4.3198   -0.2314 H     1    ESP         0.0192
   1667 H           1.8316   -4.3498   -0.2314 H     1    ESP         0.0163
   1668 H           2.3009   -4.2603   -0.2314 H     1    ESP         0.0137
   1669 H           2.7332   -4.0569   -0.2314 H     1    ESP         0.0116
   1670 H           0.8143   -4.0023   -0.6808 H     1    ESP         0.0229
   1671 H           1.2473   -4.1817   -0.6808 H     1    ESP         0.0193
   1672 H           1.7119   -4.2428   -0.6808 H     1    ESP         0.0164
   1673 H           2.1766   -4.1817   -0.6808 H     1    ESP         0.0140
   1674 H           2.6095   -4.0023   -0.6808 H     1    ESP         0.0118
   1675 H           0.9219   -3.8160   -1.0907 H     1    ESP         0.0204
   1676 H           1.3603   -3.9881   -1.0907 H     1    ESP         0.0174
   1677 H           1.8300   -4.0233   -1.0907 H     1    ESP         0.0149
   1678 H           2.2892   -3.9185   -1.0907 H     1    ESP         0.0126
   1679 H           2.6971   -3.6830   -1.0907 H     1    ESP         0.0110
   1680 H           0.6294   -3.1179   -1.4371 H     1    ESP         0.0193
   1681 H           0.9447   -3.4636   -1.4371 H     1    ESP         0.0179
   1682 H           1.3635   -3.6722   -1.4371 H     1    ESP         0.0158
   1683 H           1.8294   -3.7154   -1.4371 H     1    ESP         0.0136
   1684 H           2.2794   -3.5873   -1.4371 H     1    ESP         0.0118
   1685 H           0.8197   -2.4476   -1.7001 H     1    ESP         0.0130
   1686 H           0.9392   -2.8937   -1.7001 H     1    ESP         0.0146
   1687 H           1.2658   -3.2203   -1.7001 H     1    ESP         0.0142
   1688 H           1.7119   -3.3399   -1.7001 H     1    ESP         0.0127
   1689 H           1.4822   -2.8455   -1.8642 H     1    ESP         0.0118
   1690 H           4.7915   -1.5849   -0.2006 H     1    ESP         0.0015
   1691 H           4.7304   -1.1202   -0.2006 H     1    ESP        -0.0022
   1692 H           4.7304   -2.0495   -0.2006 H     1    ESP         0.0039
   1693 H           4.9023   -1.5849   -0.6501 H     1    ESP         0.0022
   1694 H           4.8424   -1.1109   -0.6501 H     1    ESP        -0.0012
   1695 H           4.6665   -0.6667   -0.6501 H     1    ESP        -0.0063
   1696 H           4.3857   -0.2801   -0.6501 H     1    ESP        -0.0141
   1697 H           4.0176   -3.1942   -0.6501 H     1    ESP         0.0077
   1698 H           4.3857   -2.8896   -0.6501 H     1    ESP         0.0070
   1699 H           4.6665   -2.5031   -0.6501 H     1    ESP         0.0060
   1700 H           4.8424   -2.0589   -0.6501 H     1    ESP         0.0045
   1701 H           4.9023   -1.5849   -1.1129 H     1    ESP         0.0036
   1702 H           4.8424   -1.1109   -1.1129 H     1    ESP         0.0005
   1703 H           4.6665   -0.6667   -1.1129 H     1    ESP        -0.0040
   1704 H           4.3857   -0.2801   -1.1129 H     1    ESP        -0.0104
   1705 H           4.0176    0.0244   -1.1129 H     1    ESP        -0.0195
   1706 H           3.5853   -3.3976   -1.1129 H     1    ESP         0.0090
   1707 H           4.0176   -3.1942   -1.1129 H     1    ESP         0.0085
   1708 H           4.3857   -2.8896   -1.1129 H     1    ESP         0.0079
   1709 H           4.6665   -2.5031   -1.1129 H     1    ESP         0.0071
   1710 H           4.8424   -2.0589   -1.1129 H     1    ESP         0.0057
   1711 H           4.7915   -1.5849   -1.5623 H     1    ESP         0.0050
   1712 H           4.7304   -1.1202   -1.5623 H     1    ESP         0.0023
   1713 H           4.5510   -0.6873   -1.5623 H     1    ESP        -0.0016
   1714 H           4.2657   -0.3155   -1.5623 H     1    ESP        -0.0067
   1715 H           3.8939   -0.0302   -1.5623 H     1    ESP        -0.0129
   1716 H           2.9963   -3.3801   -1.5623 H     1    ESP         0.0101
   1717 H           3.4609   -3.3189   -1.5623 H     1    ESP         0.0097
   1718 H           3.8939   -3.1396   -1.5623 H     1    ESP         0.0094
   1719 H           4.2657   -2.8543   -1.5623 H     1    ESP         0.0089
   1720 H           4.5510   -2.4825   -1.5623 H     1    ESP         0.0082
   1721 H           4.7304   -2.0495   -1.5623 H     1    ESP         0.0069
   1722 H           4.5764   -1.5849   -1.9722 H     1    ESP         0.0063
   1723 H           4.5062   -1.1191   -1.9722 H     1    ESP         0.0037
   1724 H           4.3019   -0.6948   -1.9722 H     1    ESP         0.0003
   1725 H           3.9815   -0.3495   -1.9722 H     1    ESP        -0.0038
   1726 H           3.5736   -0.1140   -1.9722 H     1    ESP        -0.0078
   1727 H           3.1144   -0.0092   -1.9722 H     1    ESP        -0.0096
   1728 H           2.2062   -2.9533   -1.9722 H     1    ESP         0.0105
   1729 H           2.6447   -3.1254   -1.9722 H     1    ESP         0.0103
   1730 H           3.1144   -3.1606   -1.9722 H     1    ESP         0.0101
   1731 H           3.5736   -3.0558   -1.9722 H     1    ESP         0.0100
   1732 H           3.9815   -2.8203   -1.9722 H     1    ESP         0.0097
   1733 H           4.3019   -2.4750   -1.9722 H     1    ESP         0.0091
   1734 H           4.5062   -2.0506   -1.9722 H     1    ESP         0.0080
   1735 H           4.2695   -1.5849   -2.3186 H     1    ESP         0.0072
   1736 H           4.1835   -1.1250   -2.3186 H     1    ESP         0.0048
   1737 H           3.9372   -0.7271   -2.3186 H     1    ESP         0.0019
   1738 H           3.5638   -0.4452   -2.3186 H     1    ESP        -0.0009
   1739 H           3.1138   -0.3171   -2.3186 H     1    ESP        -0.0022
   1740 H           2.6479   -0.3603   -2.3186 H     1    ESP        -0.0005
   1741 H           2.2290   -0.5689   -2.3186 H     1    ESP         0.0032
   1742 H           1.9138   -0.9146   -2.3186 H     1    ESP         0.0062
   1743 H           1.7448   -1.3509   -2.3186 H     1    ESP         0.0076
   1744 H           1.7448   -1.8188   -2.3186 H     1    ESP         0.0084
   1745 H           1.9138   -2.2551   -2.3186 H     1    ESP         0.0091
   1746 H           2.2290   -2.6009   -2.3186 H     1    ESP         0.0096
   1747 H           2.6479   -2.8095   -2.3186 H     1    ESP         0.0100
   1748 H           3.1138   -2.8527   -2.3186 H     1    ESP         0.0101
   1749 H           3.5638   -2.7246   -2.3186 H     1    ESP         0.0101
   1750 H           3.9372   -2.4426   -2.3186 H     1    ESP         0.0097
   1751 H           4.1835   -2.0448   -2.3186 H     1    ESP         0.0088
   1752 H           3.8886   -1.5849   -2.5816 H     1    ESP         0.0077
   1753 H           3.7690   -1.1388   -2.5816 H     1    ESP         0.0055
   1754 H           3.4424   -0.8122   -2.5816 H     1    ESP         0.0034
   1755 H           2.9963   -0.6926   -2.5816 H     1    ESP         0.0026
   1756 H           2.5502   -0.8122   -2.5816 H     1    ESP         0.0040
   1757 H           2.2236   -1.1388   -2.5816 H     1    ESP         0.0060
   1758 H           2.1040   -1.5849   -2.5816 H     1    ESP         0.0075
   1759 H           2.2236   -2.0310   -2.5816 H     1    ESP         0.0086
   1760 H           2.5502   -2.3576   -2.5816 H     1    ESP         0.0094
   1761 H           2.9963   -2.4772   -2.5816 H     1    ESP         0.0098
   1762 H           3.4424   -2.3576   -2.5816 H     1    ESP         0.0098
   1763 H           3.7690   -2.0310   -2.5816 H     1    ESP         0.0092
   1764 H           3.4558   -1.5849   -2.7457 H     1    ESP         0.0079
   1765 H           3.2260   -1.1870   -2.7457 H     1    ESP         0.0061
   1766 H           2.7665   -1.1870   -2.7457 H     1    ESP         0.0061
   1767 H           2.5368   -1.5849   -2.7457 H     1    ESP         0.0076
   1768 H           2.7665   -1.9828   -2.7457 H     1    ESP         0.0088
   1769 H           3.2260   -1.9828   -2.7457 H     1    ESP         0.0091
   1770 H           2.9963   -1.5849   -2.8015 H     1    ESP         0.0078
   1771 H           2.9963   -1.5849    2.8015 H     1    ESP         0.0078
   1772 H           3.4558   -1.5849    2.7457 H     1    ESP         0.0079
   1773 H           3.2260   -1.1870    2.7457 H     1    ESP         0.0061
   1774 H           2.7665   -1.1870    2.7457 H     1    ESP         0.0061
   1775 H           2.5368   -1.5849    2.7457 H     1    ESP         0.0076
   1776 H           2.7665   -1.9828    2.7457 H     1    ESP         0.0088
   1777 H           3.2260   -1.9828    2.7457 H     1    ESP         0.0091
   1778 H           3.8886   -1.5849    2.5816 H     1    ESP         0.0077
   1779 H           3.7690   -1.1388    2.5816 H     1    ESP         0.0055
   1780 H           3.4424   -0.8122    2.5816 H     1    ESP         0.0034
   1781 H           2.9963   -0.6926    2.5816 H     1    ESP         0.0026
   1782 H           2.5502   -0.8122    2.5816 H     1    ESP         0.0040
   1783 H           2.2236   -1.1388    2.5816 H     1    ESP         0.0060
   1784 H           2.1040   -1.5849    2.5816 H     1    ESP         0.0075
   1785 H           2.2236   -2.0310    2.5816 H     1    ESP         0.0086
   1786 H           2.5502   -2.3576    2.5816 H     1    ESP         0.0094
   1787 H           2.9963   -2.4772    2.5816 H     1    ESP         0.0098
   1788 H           3.4424   -2.3576    2.5816 H     1    ESP         0.0098
   1789 H           3.7690   -2.0310    2.5816 H     1    ESP         0.0092
   1790 H           4.2695   -1.5849    2.3186 H     1    ESP         0.0072
   1791 H           4.1835   -1.1250    2.3186 H     1    ESP         0.0048
   1792 H           3.9372   -0.7271    2.3186 H     1    ESP         0.0019
   1793 H           3.5638   -0.4452    2.3186 H     1    ESP        -0.0009
   1794 H           3.1138   -0.3171    2.3186 H     1    ESP        -0.0022
   1795 H           2.6479   -0.3603    2.3186 H     1    ESP        -0.0005
   1796 H           2.2290   -0.5689    2.3186 H     1    ESP         0.0032
   1797 H           1.9138   -0.9146    2.3186 H     1    ESP         0.0062
   1798 H           1.7448   -1.3509    2.3186 H     1    ESP         0.0076
   1799 H           1.7448   -1.8188    2.3186 H     1    ESP         0.0084
   1800 H           1.9138   -2.2551    2.3186 H     1    ESP         0.0091
   1801 H           2.2290   -2.6009    2.3186 H     1    ESP         0.0096
   1802 H           2.6479   -2.8095    2.3186 H     1    ESP         0.0100
   1803 H           3.1138   -2.8527    2.3186 H     1    ESP         0.0101
   1804 H           3.5638   -2.7246    2.3186 H     1    ESP         0.0101
   1805 H           3.9372   -2.4426    2.3186 H     1    ESP         0.0097
   1806 H           4.1835   -2.0448    2.3186 H     1    ESP         0.0088
   1807 H           4.5764   -1.5849    1.9722 H     1    ESP         0.0063
   1808 H           4.5062   -1.1191    1.9722 H     1    ESP         0.0037
   1809 H           4.3019   -0.6948    1.9722 H     1    ESP         0.0003
   1810 H           3.9815   -0.3495    1.9722 H     1    ESP        -0.0038
   1811 H           3.5736   -0.1140    1.9722 H     1    ESP        -0.0078
   1812 H           3.1144   -0.0092    1.9722 H     1    ESP        -0.0096
   1813 H           2.2062   -2.9533    1.9722 H     1    ESP         0.0105
   1814 H           2.6447   -3.1254    1.9722 H     1    ESP         0.0103
   1815 H           3.1144   -3.1606    1.9722 H     1    ESP         0.0101
   1816 H           3.5736   -3.0558    1.9722 H     1    ESP         0.0100
   1817 H           3.9815   -2.8203    1.9722 H     1    ESP         0.0097
   1818 H           4.3019   -2.4750    1.9722 H     1    ESP         0.0091
   1819 H           4.5062   -2.0506    1.9722 H     1    ESP         0.0080
   1820 H           4.7915   -1.5849    1.5623 H     1    ESP         0.0050
   1821 H           4.7304   -1.1202    1.5623 H     1    ESP         0.0023
   1822 H           4.5510   -0.6873    1.5623 H     1    ESP        -0.0016
   1823 H           4.2657   -0.3155    1.5623 H     1    ESP        -0.0067
   1824 H           3.8939   -0.0302    1.5623 H     1    ESP        -0.0129
   1825 H           2.9963   -3.3801    1.5623 H     1    ESP         0.0101
   1826 H           3.4609   -3.3189    1.5623 H     1    ESP         0.0097
   1827 H           3.8939   -3.1396    1.5623 H     1    ESP         0.0094
   1828 H           4.2657   -2.8543    1.5623 H     1    ESP         0.0089
   1829 H           4.5510   -2.4825    1.5623 H     1    ESP         0.0082
   1830 H           4.7304   -2.0495    1.5623 H     1    ESP         0.0069
   1831 H           4.9023   -1.5849    1.1129 H     1    ESP         0.0036
   1832 H           4.8424   -1.1109    1.1129 H     1    ESP         0.0005
   1833 H           4.6665   -0.6667    1.1129 H     1    ESP        -0.0040
   1834 H           4.3857   -0.2801    1.1129 H     1    ESP        -0.0104
   1835 H           4.0176    0.0244    1.1129 H     1    ESP        -0.0195
   1836 H           3.5853   -3.3976    1.1129 H     1    ESP         0.0090
   1837 H           4.0176   -3.1942    1.1129 H     1    ESP         0.0085
   1838 H           4.3857   -2.8896    1.1129 H     1    ESP         0.0079
   1839 H           4.6665   -2.5031    1.1129 H     1    ESP         0.0071
   1840 H           4.8424   -2.0589    1.1129 H     1    ESP         0.0057
   1841 H           4.9023   -1.5849    0.6501 H     1    ESP         0.0022
   1842 H           4.8424   -1.1109    0.6501 H     1    ESP        -0.0012
   1843 H           4.6665   -0.6667    0.6501 H     1    ESP        -0.0063
   1844 H           4.3857   -0.2801    0.6501 H     1    ESP        -0.0141
   1845 H           4.0176   -3.1942    0.6501 H     1    ESP         0.0077
   1846 H           4.3857   -2.8896    0.6501 H     1    ESP         0.0070
   1847 H           4.6665   -2.5031    0.6501 H     1    ESP         0.0060
   1848 H           4.8424   -2.0589    0.6501 H     1    ESP         0.0045
   1849 H           4.7915   -1.5849    0.2006 H     1    ESP         0.0015
   1850 H           4.7304   -1.1202    0.2006 H     1    ESP        -0.0022
   1851 H           4.7304   -2.0495    0.2006 H     1    ESP         0.0039
   1852 H          -0.7265    1.2774    3.1500 H     1    ESP        -0.0092
   1853 H          -0.2782    1.2774    3.1179 H     1    ESP        -0.0102
   1854 H          -0.5023    1.6656    3.1179 H     1    ESP        -0.0101
   1855 H          -0.9506    1.6656    3.1179 H     1    ESP        -0.0088
   1856 H          -1.1748    1.2774    3.1179 H     1    ESP        -0.0082
   1857 H          -0.9506    0.8892    3.1179 H     1    ESP        -0.0085
   1858 H          -0.5023    0.8892    3.1179 H     1    ESP        -0.0093
   1859 H           0.1610    1.2774    3.0224 H     1    ESP        -0.0113
   1860 H           0.0421    1.7211    3.0224 H     1    ESP        -0.0117
   1861 H          -0.2828    2.0460    3.0224 H     1    ESP        -0.0110
   1862 H          -0.7265    2.1649    3.0224 H     1    ESP        -0.0095
   1863 H          -1.1702    2.0460    3.0224 H     1    ESP        -0.0080
   1864 H          -1.4951    1.7211    3.0224 H     1    ESP        -0.0070
   1865 H          -1.6140    1.2774    3.0224 H     1    ESP        -0.0070
   1866 H          -1.4951    0.8337    3.0224 H     1    ESP        -0.0076
   1867 H          -1.1702    0.5088    3.0224 H     1    ESP        -0.0081
   1868 H          -0.7265    0.3899    3.0224 H     1    ESP        -0.0085
   1869 H          -0.2828    0.5088    3.0224 H     1    ESP        -0.0091
   1870 H           0.0421    0.8337    3.0224 H     1    ESP        -0.0101
   1871 H           0.5821    1.2774    2.8653 H     1    ESP        -0.0125
   1872 H           0.5031    1.7249    2.8653 H     1    ESP        -0.0134
   1873 H           0.2759    2.1185    2.8653 H     1    ESP        -0.0131
   1874 H          -0.0722    2.4106    2.8653 H     1    ESP        -0.0120
   1875 H          -0.4993    2.5661    2.8653 H     1    ESP        -0.0103
   1876 H          -0.9537    2.5661    2.8653 H     1    ESP        -0.0085
   1877 H          -1.3808    2.4106    2.8653 H     1    ESP        -0.0068
   1878 H          -1.7289    2.1185    2.8653 H     1    ESP        -0.0056
   1879 H          -1.9561    1.7249    2.8653 H     1    ESP        -0.0052
   1880 H          -2.0351    1.2774    2.8653 H     1    ESP        -0.0057
   1881 H          -1.9561    0.8298    2.8653 H     1    ESP        -0.0067
   1882 H          -1.7289    0.4363    2.8653 H     1    ESP        -0.0077
   1883 H          -1.3808    0.1441    2.8653 H     1    ESP        -0.0081
   1884 H          -0.9537   -0.0113    2.8653 H     1    ESP        -0.0082
   1885 H          -0.4993   -0.0113    2.8653 H     1    ESP        -0.0084
   1886 H          -0.0722    0.1441    2.8653 H     1    ESP        -0.0087
   1887 H           0.2759    0.4363    2.8653 H     1    ESP        -0.0094
   1888 H           0.5031    0.8298    2.8653 H     1    ESP        -0.0109
   1889 H           0.9765    1.2774    2.6499 H     1    ESP        -0.0145
   1890 H           0.9134    1.7369    2.6499 H     1    ESP        -0.0158
   1891 H           0.7286    2.1623    2.6499 H     1    ESP        -0.0156
   1892 H           0.4359    2.5220    2.6499 H     1    ESP        -0.0144
   1893 H           0.0570    2.7895    2.6499 H     1    ESP        -0.0127
   1894 H          -0.3800    2.9448    2.6499 H     1    ESP        -0.0107
   1895 H          -0.8427    2.9764    2.6499 H     1    ESP        -0.0086
   1896 H          -1.2968    2.8821    2.6499 H     1    ESP        -0.0066
   1897 H          -1.7086    2.6687    2.6499 H     1    ESP        -0.0047
   1898 H          -2.0475    2.3521    2.6499 H     1    ESP        -0.0034
   1899 H          -2.2885    1.9559    2.6499 H     1    ESP        -0.0028
   1900 H          -2.4136    1.5093    2.6499 H     1    ESP        -0.0034
   1901 H          -2.4136    1.0455    2.6499 H     1    ESP        -0.0049
   1902 H          -1.7086   -0.1139    2.6499 H     1    ESP        -0.0087
   1903 H          -1.2968   -0.3273    2.6499 H     1    ESP        -0.0085
   1904 H          -0.8427   -0.4217    2.6499 H     1    ESP        -0.0085
   1905 H          -0.3800   -0.3900    2.6499 H     1    ESP        -0.0084
   1906 H           0.7286    0.3925    2.6499 H     1    ESP        -0.0093
   1907 H           0.9134    0.8179    2.6499 H     1    ESP        -0.0118
   1908 H           1.3363    1.2774    2.3806 H     1    ESP        -0.0178
   1909 H           1.2846    1.7364    2.3806 H     1    ESP        -0.0196
   1910 H           1.1320    2.1724    2.3806 H     1    ESP        -0.0192
   1911 H           0.8863    2.5635    2.3806 H     1    ESP        -0.0175
   1912 H           0.5596    2.8902    2.3806 H     1    ESP        -0.0154
   1913 H           0.1685    3.1359    2.3806 H     1    ESP        -0.0132
   1914 H          -0.2675    3.2885    2.3806 H     1    ESP        -0.0110
   1915 H          -0.7265    3.3402    2.3806 H     1    ESP        -0.0087
   1916 H          -1.1855    3.2885    2.3806 H     1    ESP        -0.0065
   1917 H          -1.6215    3.1359    2.3806 H     1    ESP        -0.0042
   1918 H          -2.0126    2.8902    2.3806 H     1    ESP        -0.0023
   1919 H          -2.3393    2.5635    2.3806 H     1    ESP        -0.0007
   1920 H          -2.5850    2.1724    2.3806 H     1    ESP         0.0001
   1921 H          -2.7376    1.7364    2.3806 H     1    ESP        -0.0001
   1922 H           1.4836    2.1622    2.0628 H     1    ESP        -0.0248
   1923 H           1.2762    2.5644    2.0628 H     1    ESP        -0.0220
   1924 H           0.9964    2.9202    2.0628 H     1    ESP        -0.0190
   1925 H           0.6544    3.2166    2.0628 H     1    ESP        -0.0162
   1926 H           0.2624    3.4429    2.0628 H     1    ESP        -0.0136
   1927 H          -0.1652    3.5909    2.0628 H     1    ESP        -0.0112
   1928 H          -0.6132    3.6553    2.0628 H     1    ESP        -0.0088
   1929 H          -1.0653    3.6338    2.0628 H     1    ESP        -0.0064
   1930 H          -1.5051    3.5271    2.0628 H     1    ESP        -0.0040
   1931 H          -1.9168    3.3391    2.0628 H     1    ESP        -0.0017
   1932 H          -2.2855    3.0765    2.0628 H     1    ESP         0.0005
   1933 H          -2.5978    2.7490    2.0628 H     1    ESP         0.0024
   1934 H          -2.8425    2.3683    2.0628 H     1    ESP         0.0037
   1935 H           1.3353    2.9421    1.7030 H     1    ESP        -0.0236
   1936 H           1.0243    3.2666    1.7030 H     1    ESP        -0.0196
   1937 H           0.6629    3.5339    1.7030 H     1    ESP        -0.0162
   1938 H           0.2616    3.7363    1.7030 H     1    ESP        -0.0134
   1939 H          -0.1682    3.8679    1.7030 H     1    ESP        -0.0108
   1940 H          -0.6140    3.9250    1.7030 H     1    ESP        -0.0083
   1941 H          -1.0631    3.9059    1.7030 H     1    ESP        -0.0058
   1942 H          -1.5025    3.8112    1.7030 H     1    ESP        -0.0033
   1943 H          -1.9195    3.6436    1.7030 H     1    ESP        -0.0007
   1944 H          -2.3022    3.4079    1.7030 H     1    ESP         0.0018
   1945 H          -2.6396    3.1110    1.7030 H     1    ESP         0.0043
   1946 H          -2.9220    2.7613    1.7030 H     1    ESP         0.0066
   1947 H           1.5916    2.9616    1.3086 H     1    ESP        -0.0293
   1948 H           1.2996    3.3035    1.3086 H     1    ESP        -0.0233
   1949 H           0.9577    3.5955    1.3086 H     1    ESP        -0.0189
   1950 H           0.5743    3.8304    1.3086 H     1    ESP        -0.0154
   1951 H           0.1589    4.0025    1.3086 H     1    ESP        -0.0124
   1952 H          -0.2783    4.1075    1.3086 H     1    ESP        -0.0098
   1953 H          -0.7265    4.1427    1.3086 H     1    ESP        -0.0072
   1954 H          -1.1747    4.1075    1.3086 H     1    ESP        -0.0046
   1955 H          -1.6119    4.0025    1.3086 H     1    ESP        -0.0019
   1956 H          -2.0273    3.8304    1.3086 H     1    ESP         0.0008
   1957 H          -2.4107    3.5955    1.3086 H     1    ESP         0.0037
   1958 H          -2.7526    3.3035    1.3086 H     1    ESP         0.0066
   1959 H          -3.0446    2.9616    1.3086 H     1    ESP         0.0096
   1960 H           1.4891    3.3331    0.8875 H     1    ESP        -0.0270
   1961 H           1.1579    3.6404    0.8875 H     1    ESP        -0.0213
   1962 H           0.7847    3.8949    0.8875 H     1    ESP        -0.0171
   1963 H           0.3777    4.0909    0.8875 H     1    ESP        -0.0137
   1964 H          -0.0539    4.2240    0.8875 H     1    ESP        -0.0108
   1965 H          -0.5006    4.2913    0.8875 H     1    ESP        -0.0081
   1966 H          -0.9524    4.2913    0.8875 H     1    ESP        -0.0054
   1967 H          -1.3990    4.2240    0.8875 H     1    ESP        -0.0027
   1968 H          -1.8307    4.0909    0.8875 H     1    ESP         0.0001
   1969 H          -2.2377    3.8949    0.8875 H     1    ESP         0.0031
   1970 H          -2.6109    3.6404    0.8875 H     1    ESP         0.0062
   1971 H          -2.9421    3.3331    0.8875 H     1    ESP         0.0096
   1972 H           1.5957    3.3581    0.4483 H     1    ESP        -0.0296
   1973 H           1.2680    3.6740    0.4483 H     1    ESP        -0.0229
   1974 H           0.8978    3.9388    0.4483 H     1    ESP        -0.0181
   1975 H           0.4929    4.1470    0.4483 H     1    ESP        -0.0144
   1976 H           0.0621    4.2939    0.4483 H     1    ESP        -0.0114
   1977 H          -0.3855    4.3766    0.4483 H     1    ESP        -0.0086
   1978 H          -0.8404    4.3933    0.4483 H     1    ESP        -0.0058
   1979 H          -1.2928    4.3435    0.4483 H     1    ESP        -0.0031
   1980 H          -1.7332    4.2283    0.4483 H     1    ESP        -0.0002
   1981 H          -2.1521    4.0503    0.4483 H     1    ESP         0.0028
   1982 H          -2.5407    3.8132    0.4483 H     1    ESP         0.0061
   1983 H          -2.8906    3.5220    0.4483 H     1    ESP         0.0097
   1984 H          -3.1943    3.1830    0.4483 H     1    ESP         0.0139
   1985 H           1.6541    3.3402    0.0000 H     1    ESP        -0.0313
   1986 H           1.3363    3.6580    0.0000 H     1    ESP        -0.0240
   1987 H           0.9765    3.9273    0.0000 H     1    ESP        -0.0189
   1988 H           0.5821    4.1427    0.0000 H     1    ESP        -0.0151
   1989 H           0.1610    4.2998    0.0000 H     1    ESP        -0.0120
   1990 H          -0.2782    4.3953    0.0000 H     1    ESP        -0.0091
   1991 H          -0.7265    4.4274    0.0000 H     1    ESP        -0.0064
   1992 H          -1.1748    4.3953    0.0000 H     1    ESP        -0.0037
   1993 H          -1.6140    4.2998    0.0000 H     1    ESP        -0.0009
   1994 H          -2.0351    4.1427    0.0000 H     1    ESP         0.0021
   1995 H          -2.4295    3.9273    0.0000 H     1    ESP         0.0053
   1996 H          -2.7893    3.6580    0.0000 H     1    ESP         0.0087
   1997 H          -3.1071    3.3402    0.0000 H     1    ESP         0.0128
   1998 H           1.5957    3.3581   -0.4483 H     1    ESP        -0.0296
   1999 H           1.2680    3.6740   -0.4483 H     1    ESP        -0.0229
   2000 H           0.8978    3.9388   -0.4483 H     1    ESP        -0.0181
   2001 H           0.4929    4.1470   -0.4483 H     1    ESP        -0.0144
   2002 H           0.0621    4.2939   -0.4483 H     1    ESP        -0.0114
   2003 H          -0.3855    4.3766   -0.4483 H     1    ESP        -0.0086
   2004 H          -0.8404    4.3933   -0.4483 H     1    ESP        -0.0058
   2005 H          -1.2928    4.3435   -0.4483 H     1    ESP        -0.0031
   2006 H          -1.7332    4.2283   -0.4483 H     1    ESP        -0.0002
   2007 H          -2.1521    4.0503   -0.4483 H     1    ESP         0.0028
   2008 H          -2.5407    3.8132   -0.4483 H     1    ESP         0.0061
   2009 H          -2.8906    3.5220   -0.4483 H     1    ESP         0.0097
   2010 H          -3.1943    3.1830   -0.4483 H     1    ESP         0.0139
   2011 H           1.4891    3.3331   -0.8875 H     1    ESP        -0.0270
   2012 H           1.1579    3.6404   -0.8875 H     1    ESP        -0.0213
   2013 H           0.7847    3.8949   -0.8875 H     1    ESP        -0.0171
   2014 H           0.3777    4.0909   -0.8875 H     1    ESP        -0.0137
   2015 H          -0.0539    4.2240   -0.8875 H     1    ESP        -0.0108
   2016 H          -0.5006    4.2913   -0.8875 H     1    ESP        -0.0081
   2017 H          -0.9524    4.2913   -0.8875 H     1    ESP        -0.0054
   2018 H          -1.3990    4.2240   -0.8875 H     1    ESP        -0.0027
   2019 H          -1.8307    4.0909   -0.8875 H     1    ESP         0.0001
   2020 H          -2.2377    3.8949   -0.8875 H     1    ESP         0.0031
   2021 H          -2.6109    3.6404   -0.8875 H     1    ESP         0.0062
   2022 H          -2.9421    3.3331   -0.8875 H     1    ESP         0.0096
   2023 H           1.5916    2.9616   -1.3086 H     1    ESP        -0.0293
   2024 H           1.2996    3.3035   -1.3086 H     1    ESP        -0.0233
   2025 H           0.9577    3.5955   -1.3086 H     1    ESP        -0.0189
   2026 H           0.5743    3.8304   -1.3086 H     1    ESP        -0.0154
   2027 H           0.1589    4.0025   -1.3086 H     1    ESP        -0.0124
   2028 H          -0.2783    4.1075   -1.3086 H     1    ESP        -0.0098
   2029 H          -0.7265    4.1427   -1.3086 H     1    ESP        -0.0072
   2030 H          -1.1747    4.1075   -1.3086 H     1    ESP        -0.0046
   2031 H          -1.6119    4.0025   -1.3086 H     1    ESP        -0.0019
   2032 H          -2.0273    3.8304   -1.3086 H     1    ESP         0.0008
   2033 H          -2.4107    3.5955   -1.3086 H     1    ESP         0.0037
   2034 H          -2.7526    3.3035   -1.3086 H     1    ESP         0.0066
   2035 H          -3.0446    2.9616   -1.3086 H     1    ESP         0.0096
   2036 H           1.3353    2.9421   -1.7030 H     1    ESP        -0.0236
   2037 H           1.0243    3.2666   -1.7030 H     1    ESP        -0.0196
   2038 H           0.6629    3.5339   -1.7030 H     1    ESP        -0.0162
   2039 H           0.2616    3.7363   -1.7030 H     1    ESP        -0.0134
   2040 H          -0.1682    3.8679   -1.7030 H     1    ESP        -0.0108
   2041 H          -0.6140    3.9250   -1.7030 H     1    ESP        -0.0083
   2042 H          -1.0631    3.9059   -1.7030 H     1    ESP        -0.0058
   2043 H          -1.5025    3.8112   -1.7030 H     1    ESP        -0.0033
   2044 H          -1.9195    3.6436   -1.7030 H     1    ESP        -0.0007
   2045 H          -2.3022    3.4079   -1.7030 H     1    ESP         0.0018
   2046 H          -2.6396    3.1110   -1.7030 H     1    ESP         0.0043
   2047 H          -2.9220    2.7613   -1.7030 H     1    ESP         0.0066
   2048 H           1.4836    2.1622   -2.0628 H     1    ESP        -0.0248
   2049 H           1.2762    2.5644   -2.0628 H     1    ESP        -0.0220
   2050 H           0.9964    2.9202   -2.0628 H     1    ESP        -0.0190
   2051 H           0.6544    3.2166   -2.0628 H     1    ESP        -0.0162
   2052 H           0.2624    3.4429   -2.0628 H     1    ESP        -0.0136
   2053 H          -0.1652    3.5909   -2.0628 H     1    ESP        -0.0112
   2054 H          -0.6132    3.6553   -2.0628 H     1    ESP        -0.0088
   2055 H          -1.0653    3.6338   -2.0628 H     1    ESP        -0.0064
   2056 H          -1.5051    3.5271   -2.0628 H     1    ESP        -0.0040
   2057 H          -1.9168    3.3391   -2.0628 H     1    ESP        -0.0017
   2058 H          -2.2855    3.0765   -2.0628 H     1    ESP         0.0005
   2059 H          -2.5978    2.7490   -2.0628 H     1    ESP         0.0024
   2060 H          -2.8425    2.3683   -2.0628 H     1    ESP         0.0037
   2061 H           1.3363    1.2774   -2.3806 H     1    ESP        -0.0178
   2062 H           1.2846    1.7364   -2.3806 H     1    ESP        -0.0196
   2063 H           1.1320    2.1724   -2.3806 H     1    ESP        -0.0192
   2064 H           0.8863    2.5635   -2.3806 H     1    ESP        -0.0175
   2065 H           0.5596    2.8902   -2.3806 H     1    ESP        -0.0154
   2066 H           0.1685    3.1359   -2.3806 H     1    ESP        -0.0132
   2067 H          -0.2675    3.2885   -2.3806 H     1    ESP        -0.0110
   2068 H          -0.7265    3.3402   -2.3806 H     1    ESP        -0.0087
   2069 H          -1.1855    3.2885   -2.3806 H     1    ESP        -0.0065
   2070 H          -1.6215    3.1359   -2.3806 H     1    ESP        -0.0042
   2071 H          -2.0126    2.8902   -2.3806 H     1    ESP        -0.0023
   2072 H          -2.3393    2.5635   -2.3806 H     1    ESP        -0.0007
   2073 H          -2.5850    2.1724   -2.3806 H     1    ESP         0.0001
   2074 H          -2.7376    1.7364   -2.3806 H     1    ESP        -0.0001
   2075 H           0.9765    1.2774   -2.6499 H     1    ESP        -0.0145
   2076 H           0.9134    1.7369   -2.6499 H     1    ESP        -0.0158
   2077 H           0.7286    2.1623   -2.6499 H     1    ESP        -0.0156
   2078 H           0.4359    2.5220   -2.6499 H     1    ESP        -0.0144
   2079 H           0.0570    2.7895   -2.6499 H     1    ESP        -0.0127
   2080 H          -0.3800    2.9448   -2.6499 H     1    ESP        -0.0107
   2081 H          -0.8427    2.9764   -2.6499 H     1    ESP        -0.0086
   2082 H          -1.2968    2.8821   -2.6499 H     1    ESP        -0.0066
   2083 H          -1.7086    2.6687   -2.6499 H     1    ESP        -0.0047
   2084 H          -2.0475    2.3521   -2.6499 H     1    ESP        -0.0034
   2085 H          -2.2885    1.9559   -2.6499 H     1    ESP        -0.0028
   2086 H          -2.4136    1.5093   -2.6499 H     1    ESP        -0.0034
   2087 H          -2.4136    1.0455   -2.6499 H     1    ESP        -0.0049
   2088 H          -1.7086   -0.1139   -2.6499 H     1    ESP        -0.0087
   2089 H          -1.2968   -0.3273   -2.6499 H     1    ESP        -0.0085
   2090 H          -0.8427   -0.4217   -2.6499 H     1    ESP        -0.0085
   2091 H          -0.3800   -0.3900   -2.6499 H     1    ESP        -0.0084
   2092 H           0.7286    0.3925   -2.6499 H     1    ESP        -0.0093
   2093 H           0.9134    0.8179   -2.6499 H     1    ESP        -0.0118
   2094 H           0.5821    1.2774   -2.8653 H     1    ESP        -0.0125
   2095 H           0.5031    1.7249   -2.8653 H     1    ESP        -0.0134
   2096 H           0.2759    2.1185   -2.8653 H     1    ESP        -0.0131
   2097 H          -0.0722    2.4106   -2.8653 H     1    ESP        -0.0120
   2098 H          -0.4993    2.5661   -2.8653 H     1    ESP        -0.0103
   2099 H          -0.9537    2.5661   -2.8653 H     1    ESP        -0.0085
   2100 H          -1.3808    2.4106   -2.8653 H     1    ESP        -0.0068
   2101 H          -1.7289    2.1185   -2.8653 H     1    ESP        -0.0056
   2102 H          -1.9561    1.7249   -2.8653 H     1    ESP        -0.0052
   2103 H          -2.0351    1.2774   -2.8653 H     1    ESP        -0.0057
   2104 H          -1.9561    0.8298   -2.8653 H     1    ESP        -0.0067
   2105 H          -1.7289    0.4363   -2.8653 H     1    ESP        -0.0077
   2106 H          -1.3808    0.1441   -2.8653 H     1    ESP        -0.0081
   2107 H          -0.9537   -0.0113   -2.8653 H     1    ESP        -0.0082
   2108 H          -0.4993   -0.0113   -2.8653 H     1    ESP        -0.0084
   2109 H          -0.0722    0.1441   -2.8653 H     1    ESP        -0.0087
   2110 H           0.2759    0.4363   -2.8653 H     1    ESP        -0.0094
   2111 H           0.5031    0.8298   -2.8653 H     1    ESP        -0.0109
   2112 H           0.1610    1.2774   -3.0224 H     1    ESP        -0.0113
   2113 H           0.0421    1.7211   -3.0224 H     1    ESP        -0.0117
   2114 H          -0.2828    2.0460   -3.0224 H     1    ESP        -0.0110
   2115 H          -0.7265    2.1649   -3.0224 H     1    ESP        -0.0095
   2116 H          -1.1702    2.0460   -3.0224 H     1    ESP        -0.0080
   2117 H          -1.4951    1.7211   -3.0224 H     1    ESP        -0.0070
   2118 H          -1.6140    1.2774   -3.0224 H     1    ESP        -0.0070
   2119 H          -1.4951    0.8337   -3.0224 H     1    ESP        -0.0076
   2120 H          -1.1702    0.5088   -3.0224 H     1    ESP        -0.0081
   2121 H          -0.7265    0.3899   -3.0224 H     1    ESP        -0.0085
   2122 H          -0.2828    0.5088   -3.0224 H     1    ESP        -0.0091
   2123 H           0.0421    0.8337   -3.0224 H     1    ESP        -0.0101
   2124 H          -0.2782    1.2774   -3.1179 H     1    ESP        -0.0102
   2125 H          -0.5023    1.6656   -3.1179 H     1    ESP        -0.0101
   2126 H          -0.9506    1.6656   -3.1179 H     1    ESP        -0.0088
   2127 H          -1.1748    1.2774   -3.1179 H     1    ESP        -0.0082
   2128 H          -0.9506    0.8892   -3.1179 H     1    ESP        -0.0085
   2129 H          -0.5023    0.8892   -3.1179 H     1    ESP        -0.0093
   2130 H          -0.7265    1.2774   -3.1500 H     1    ESP        -0.0092
   2131 H          -2.2544    0.4737    2.7000 H     1    ESP        -0.0069
   2132 H          -2.4888    0.8797    2.6590 H     1    ESP        -0.0049
   2133 H          -2.7232    0.4737    2.6590 H     1    ESP        -0.0046
   2134 H          -2.4888    0.0677    2.6590 H     1    ESP        -0.0065
   2135 H          -2.0199    0.0677    2.6590 H     1    ESP        -0.0082
   2136 H          -2.7161    1.2734    2.5372 H     1    ESP        -0.0023
   2137 H          -3.0541    0.9354    2.5372 H     1    ESP        -0.0013
   2138 H          -3.1778    0.4737    2.5372 H     1    ESP        -0.0018
   2139 H          -3.0541    0.0120    2.5372 H     1    ESP        -0.0035
   2140 H          -2.9294    1.6428    2.3383 H     1    ESP         0.0009
   2141 H          -3.2885    1.3415    2.3383 H     1    ESP         0.0022
   2142 H          -3.5229    0.9354    2.3383 H     1    ESP         0.0024
   2143 H          -3.6044    0.4737    2.3383 H     1    ESP         0.0016
   2144 H          -3.5229    0.0120    2.3383 H     1    ESP         0.0001
   2145 H          -3.2552    1.8916    2.0683 H     1    ESP         0.0053
   2146 H          -3.6006    1.5690    2.0683 H     1    ESP         0.0065
   2147 H          -3.8462    1.1651    2.0683 H     1    ESP         0.0067
   2148 H          -3.9737    0.7100    2.0683 H     1    ESP         0.0061
   2149 H          -3.9737    0.2374    2.0683 H     1    ESP         0.0048
   2150 H          -3.8462   -0.2177    2.0683 H     1    ESP         0.0033
   2151 H          -3.1518    2.3372    1.7355 H     1    ESP         0.0082
   2152 H          -4.3227    0.4737    1.7355 H     1    ESP         0.0097
   2153 H          -4.2708    0.0135    1.7355 H     1    ESP         0.0083
   2154 H          -4.5477    0.0175    1.3500 H     1    ESP         0.0124
   2155 H          -4.7530   -0.4357    0.4689 H     1    ESP         0.0179
   2156 H          -4.7530   -0.4357   -0.4689 H     1    ESP         0.0179
   2157 H          -4.5477    0.0175   -1.3500 H     1    ESP         0.0124
   2158 H          -3.1518    2.3372   -1.7355 H     1    ESP         0.0082
   2159 H          -4.3227    0.4737   -1.7355 H     1    ESP         0.0097
   2160 H          -4.2708    0.0135   -1.7355 H     1    ESP         0.0083
   2161 H          -3.2552    1.8916   -2.0683 H     1    ESP         0.0053
   2162 H          -3.6006    1.5690   -2.0683 H     1    ESP         0.0065
   2163 H          -3.8462    1.1651   -2.0683 H     1    ESP         0.0067
   2164 H          -3.9737    0.7100   -2.0683 H     1    ESP         0.0061
   2165 H          -3.9737    0.2374   -2.0683 H     1    ESP         0.0048
   2166 H          -3.8462   -0.2177   -2.0683 H     1    ESP         0.0033
   2167 H          -2.9294    1.6428   -2.3383 H     1    ESP         0.0009
   2168 H          -3.2885    1.3415   -2.3383 H     1    ESP         0.0022
   2169 H          -3.5229    0.9354   -2.3383 H     1    ESP         0.0024
   2170 H          -3.6044    0.4737   -2.3383 H     1    ESP         0.0016
   2171 H          -3.5229    0.0120   -2.3383 H     1    ESP         0.0001
   2172 H          -2.7161    1.2734   -2.5372 H     1    ESP        -0.0023
   2173 H          -3.0541    0.9354   -2.5372 H     1    ESP        -0.0013
   2174 H          -3.1778    0.4737   -2.5372 H     1    ESP        -0.0018
   2175 H          -3.0541    0.0120   -2.5372 H     1    ESP        -0.0035
   2176 H          -2.4888    0.8797   -2.6590 H     1    ESP        -0.0049
   2177 H          -2.7232    0.4737   -2.6590 H     1    ESP        -0.0046
   2178 H          -2.4888    0.0677   -2.6590 H     1    ESP        -0.0065
   2179 H          -2.0199    0.0677   -2.6590 H     1    ESP        -0.0082
   2180 H          -2.2544    0.4737   -2.7000 H     1    ESP        -0.0069
   2181 H          -2.1294   -0.8942    2.7000 H     1    ESP        -0.0057
   2182 H          -1.6605   -0.8942    2.6590 H     1    ESP        -0.0069
   2183 H          -1.8949   -0.4881    2.6590 H     1    ESP        -0.0079
   2184 H          -2.3638   -0.4881    2.6590 H     1    ESP        -0.0065
   2185 H          -2.5982   -0.8942    2.6590 H     1    ESP        -0.0041
   2186 H          -2.3638   -1.3002    2.6590 H     1    ESP        -0.0031
   2187 H          -1.8949   -1.3002    2.6590 H     1    ESP        -0.0045
   2188 H          -2.9291   -0.4324    2.5372 H     1    ESP        -0.0041
   2189 H          -3.0528   -0.8942    2.5372 H     1    ESP        -0.0018
   2190 H          -2.9291   -1.3559    2.5372 H     1    ESP        -0.0004
   2191 H          -2.5911   -1.6939    2.5372 H     1    ESP        -0.0001
   2192 H          -2.1294   -1.8176    2.5372 H     1    ESP        -0.0009
   2193 H          -1.6676   -1.6939    2.5372 H     1    ESP        -0.0028
   2194 H          -3.3980   -0.4324    2.3383 H     1    ESP        -0.0009
   2195 H          -3.4794   -0.8942    2.3383 H     1    ESP         0.0011
   2196 H          -3.3980   -1.3559    2.3383 H     1    ESP         0.0024
   2197 H          -3.1635   -1.7619    2.3383 H     1    ESP         0.0032
   2198 H          -2.8044   -2.0633    2.3383 H     1    ESP         0.0033
   2199 H          -2.3638   -2.2236    2.3383 H     1    ESP         0.0027
   2200 H          -1.8949   -2.2236    2.3383 H     1    ESP         0.0016
   2201 H          -3.8487   -0.6578    2.0683 H     1    ESP         0.0038
   2202 H          -3.8487   -1.1305    2.0683 H     1    ESP         0.0052
   2203 H          -3.7212   -1.5856    2.0683 H     1    ESP         0.0063
   2204 H          -3.4756   -1.9894    2.0683 H     1    ESP         0.0070
   2205 H          -3.1302   -2.3120    2.0683 H     1    ESP         0.0071
   2206 H          -2.7106   -2.5295    2.0683 H     1    ESP         0.0067
   2207 H          -2.2478   -2.6256    2.0683 H     1    ESP         0.0060
   2208 H          -4.1458   -0.4339    1.7355 H     1    ESP         0.0073
   2209 H          -4.1977   -0.8942    1.7355 H     1    ESP         0.0083
   2210 H          -2.5896   -2.9106    1.7355 H     1    ESP         0.0102
   2211 H          -2.1294   -2.9625    1.7355 H     1    ESP         0.0098
   2212 H          -4.4227   -0.4380    1.3500 H     1    ESP         0.0116
   2213 H          -2.1294   -3.2324    1.3500 H     1    ESP         0.0138
   2214 H          -4.4227   -0.4380   -1.3500 H     1    ESP         0.0116
   2215 H          -2.1294   -3.2324   -1.3500 H     1    ESP         0.0138
   2216 H          -4.1458   -0.4339   -1.7355 H     1    ESP         0.0073
   2217 H          -4.1977   -0.8942   -1.7355 H     1    ESP         0.0083
   2218 H          -2.5896   -2.9106   -1.7355 H     1    ESP         0.0102
   2219 H          -2.1294   -2.9625   -1.7355 H     1    ESP         0.0098
   2220 H          -3.8487   -0.6578   -2.0683 H     1    ESP         0.0038
   2221 H          -3.8487   -1.1305   -2.0683 H     1    ESP         0.0052
   2222 H          -3.7212   -1.5856   -2.0683 H     1    ESP         0.0063
   2223 H          -3.4756   -1.9894   -2.0683 H     1    ESP         0.0070
   2224 H          -3.1302   -2.3120   -2.0683 H     1    ESP         0.0071
   2225 H          -2.7106   -2.5295   -2.0683 H     1    ESP         0.0067
   2226 H          -2.2478   -2.6256   -2.0683 H     1    ESP         0.0060
   2227 H          -3.3980   -0.4324   -2.3383 H     1    ESP        -0.0009
   2228 H          -3.4794   -0.8942   -2.3383 H     1    ESP         0.0011
   2229 H          -3.3980   -1.3559   -2.3383 H     1    ESP         0.0024
   2230 H          -3.1635   -1.7619   -2.3383 H     1    ESP         0.0032
   2231 H          -2.8044   -2.0633   -2.3383 H     1    ESP         0.0033
   2232 H          -2.3638   -2.2236   -2.3383 H     1    ESP         0.0027
   2233 H          -1.8949   -2.2236   -2.3383 H     1    ESP         0.0016
   2234 H          -2.9291   -0.4324   -2.5372 H     1    ESP        -0.0041
   2235 H          -3.0528   -0.8942   -2.5372 H     1    ESP        -0.0018
   2236 H          -2.9291   -1.3559   -2.5372 H     1    ESP        -0.0004
   2237 H          -2.5911   -1.6939   -2.5372 H     1    ESP        -0.0001
   2238 H          -2.1294   -1.8176   -2.5372 H     1    ESP        -0.0009
   2239 H          -1.6676   -1.6939   -2.5372 H     1    ESP        -0.0028
   2240 H          -1.6605   -0.8942   -2.6590 H     1    ESP        -0.0069
   2241 H          -1.8949   -0.4881   -2.6590 H     1    ESP        -0.0079
   2242 H          -2.3638   -0.4881   -2.6590 H     1    ESP        -0.0065
   2243 H          -2.5982   -0.8942   -2.6590 H     1    ESP        -0.0041
   2244 H          -2.3638   -1.3002   -2.6590 H     1    ESP        -0.0031
   2245 H          -1.8949   -1.3002   -2.6590 H     1    ESP        -0.0045
   2246 H          -2.1294   -0.8942   -2.7000 H     1    ESP        -0.0057
   2247 H          -0.7717   -1.3096    2.7000 H     1    ESP        -0.0047
   2248 H          -0.3028   -1.3096    2.6590 H     1    ESP        -0.0041
   2249 H          -0.5373   -0.9035    2.6590 H     1    ESP        -0.0068
   2250 H          -1.0061   -0.9035    2.6590 H     1    ESP        -0.0071
   2251 H          -1.2405   -1.3096    2.6590 H     1    ESP        -0.0052
   2252 H          -1.0061   -1.7156    2.6590 H     1    ESP        -0.0025
   2253 H          -0.5373   -1.7156    2.6590 H     1    ESP        -0.0019
   2254 H           0.1518   -1.3096    2.5372 H     1    ESP        -0.0028
   2255 H          -1.5714   -1.7713    2.5372 H     1    ESP        -0.0024
   2256 H          -1.2334   -2.1093    2.5372 H     1    ESP         0.0002
   2257 H          -0.7717   -2.2330    2.5372 H     1    ESP         0.0016
   2258 H          -0.3100   -2.1093    2.5372 H     1    ESP         0.0015
   2259 H           0.0280   -1.7713    2.5372 H     1    ESP         0.0000
   2260 H          -1.4467   -2.4787    2.3383 H     1    ESP         0.0033
   2261 H          -1.0061   -2.6391    2.3383 H     1    ESP         0.0048
   2262 H          -0.5373   -2.6391    2.3383 H     1    ESP         0.0056
   2263 H          -0.0967   -2.4787    2.3383 H     1    ESP         0.0054
   2264 H           0.2625   -2.1773    2.3383 H     1    ESP         0.0043
   2265 H           0.4969   -1.7713    2.3383 H     1    ESP         0.0025
   2266 H          -1.7725   -2.7274    2.0683 H     1    ESP         0.0062
   2267 H          -1.3529   -2.9449    2.0683 H     1    ESP         0.0078
   2268 H          -0.8901   -3.0410    2.0683 H     1    ESP         0.0091
   2269 H          -0.4186   -3.0088    2.0683 H     1    ESP         0.0099
   2270 H           0.0268   -2.8505    2.0683 H     1    ESP         0.0099
   2271 H           0.4129   -2.5779    2.0683 H     1    ESP         0.0091
   2272 H           0.7112   -2.2113    2.0683 H     1    ESP         0.0077
   2273 H          -1.6691   -3.1731    1.7355 H     1    ESP         0.0109
   2274 H          -2.0708   -3.2538    1.3500 H     1    ESP         0.0139
   2275 H          -2.0708   -3.2538   -1.3500 H     1    ESP         0.0139
   2276 H          -1.6691   -3.1731   -1.7355 H     1    ESP         0.0109
   2277 H          -1.7725   -2.7274   -2.0683 H     1    ESP         0.0062
   2278 H          -1.3529   -2.9449   -2.0683 H     1    ESP         0.0078
   2279 H          -0.8901   -3.0410   -2.0683 H     1    ESP         0.0091
   2280 H          -0.4186   -3.0088   -2.0683 H     1    ESP         0.0099
   2281 H           0.0268   -2.8505   -2.0683 H     1    ESP         0.0099
   2282 H           0.4129   -2.5779   -2.0683 H     1    ESP         0.0091
   2283 H           0.7112   -2.2113   -2.0683 H     1    ESP         0.0077
   2284 H          -1.4467   -2.4787   -2.3383 H     1    ESP         0.0033
   2285 H          -1.0061   -2.6391   -2.3383 H     1    ESP         0.0048
   2286 H          -0.5373   -2.6391   -2.3383 H     1    ESP         0.0056
   2287 H          -0.0967   -2.4787   -2.3383 H     1    ESP         0.0054
   2288 H           0.2625   -2.1773   -2.3383 H     1    ESP         0.0043
   2289 H           0.4969   -1.7713   -2.3383 H     1    ESP         0.0025
   2290 H           0.1518   -1.3096   -2.5372 H     1    ESP        -0.0028
   2291 H          -1.5714   -1.7713   -2.5372 H     1    ESP        -0.0024
   2292 H          -1.2334   -2.1093   -2.5372 H     1    ESP         0.0002
   2293 H          -0.7717   -2.2330   -2.5372 H     1    ESP         0.0016
   2294 H          -0.3100   -2.1093   -2.5372 H     1    ESP         0.0015
   2295 H           0.0280   -1.7713   -2.5372 H     1    ESP         0.0000
   2296 H          -0.3028   -1.3096   -2.6590 H     1    ESP        -0.0041
   2297 H          -0.5373   -0.9035   -2.6590 H     1    ESP        -0.0068
   2298 H          -1.0061   -0.9035   -2.6590 H     1    ESP        -0.0071
   2299 H          -1.2405   -1.3096   -2.6590 H     1    ESP        -0.0052
   2300 H          -1.0061   -1.7156   -2.6590 H     1    ESP        -0.0025
   2301 H          -0.5373   -1.7156   -2.6590 H     1    ESP        -0.0019
   2302 H          -0.7717   -1.3096   -2.7000 H     1    ESP        -0.0047
   2303 H           0.1200   -0.2552    2.7000 H     1    ESP        -0.0077
   2304 H           0.5889   -0.2552    2.6590 H     1    ESP        -0.0060
   2305 H          -0.1144   -0.6613    2.6590 H     1    ESP        -0.0070
   2306 H           0.3544   -0.6613    2.6590 H     1    ESP        -0.0051
   2307 H           0.5817   -1.0550    2.5372 H     1    ESP        -0.0018
   2308 H           0.7950   -1.4244    2.3383 H     1    ESP         0.0022
   2309 H           0.7950   -1.4244   -2.3383 H     1    ESP         0.0022
   2310 H           0.5817   -1.0550   -2.5372 H     1    ESP        -0.0018
   2311 H           0.5889   -0.2552   -2.6590 H     1    ESP        -0.0060
   2312 H          -0.1144   -0.6613   -2.6590 H     1    ESP        -0.0070
   2313 H           0.3544   -0.6613   -2.6590 H     1    ESP        -0.0051
   2314 H           0.1200   -0.2552   -2.7000 H     1    ESP        -0.0077
   2315 H           1.5912   -0.2386    2.7000 H     1    ESP        -0.0030
   2316 H           2.0600   -0.2386    2.6590 H     1    ESP        -0.0028
   2317 H           1.8256    0.1675    2.6590 H     1    ESP        -0.0071
   2318 H           1.3567    0.1675    2.6590 H     1    ESP        -0.0069
   2319 H           1.1223   -0.2386    2.6590 H     1    ESP        -0.0040
   2320 H           1.3567   -0.6446    2.6590 H     1    ESP        -0.0003
   2321 H           1.8256   -0.6446    2.6590 H     1    ESP         0.0009
   2322 H           2.5146   -0.2386    2.5372 H     1    ESP        -0.0030
   2323 H           2.3909    0.2232    2.5372 H     1    ESP        -0.0092
   2324 H           2.0529    0.5612    2.5372 H     1    ESP        -0.0126
   2325 H           1.5912    0.6849    2.5372 H     1    ESP        -0.0126
   2326 H           1.1294    0.5612    2.5372 H     1    ESP        -0.0105
   2327 H           1.1294   -1.0383    2.5372 H     1    ESP         0.0016
   2328 H           0.9162   -1.4077    2.3383 H     1    ESP         0.0030
   2329 H           0.9162   -1.4077   -2.3383 H     1    ESP         0.0030
   2330 H           2.5146   -0.2386   -2.5372 H     1    ESP        -0.0030
   2331 H           2.3909    0.2232   -2.5372 H     1    ESP        -0.0092
   2332 H           2.0529    0.5612   -2.5372 H     1    ESP        -0.0126
   2333 H           1.5912    0.6849   -2.5372 H     1    ESP        -0.0126
   2334 H           1.1294    0.5612   -2.5372 H     1    ESP        -0.0105
   2335 H           1.1294   -1.0383   -2.5372 H     1    ESP         0.0016
   2336 H           2.0600   -0.2386   -2.6590 H     1    ESP        -0.0028
   2337 H           1.8256    0.1675   -2.6590 H     1    ESP        -0.0071
   2338 H           1.3567    0.1675   -2.6590 H     1    ESP        -0.0069
   2339 H           1.1223   -0.2386   -2.6590 H     1    ESP        -0.0040
   2340 H           1.3567   -0.6446   -2.6590 H     1    ESP        -0.0003
   2341 H           1.8256   -0.6446   -2.6590 H     1    ESP         0.0009
   2342 H           1.5912   -0.2386   -2.7000 H     1    ESP        -0.0030
   2343 H           1.4238   -1.5599    2.5372 H     1    ESP         0.0051
   2344 H           1.5475   -2.0217    2.5372 H     1    ESP         0.0067
   2345 H           0.9972   -1.5599    2.3383 H     1    ESP         0.0042
   2346 H           1.0787   -2.0217    2.3383 H     1    ESP         0.0064
   2347 H           1.3131   -2.4277    2.3383 H     1    ESP         0.0081
   2348 H           1.6722   -2.7291    2.3383 H     1    ESP         0.0088
   2349 H           0.7554   -2.2514    2.0683 H     1    ESP         0.0081
   2350 H           1.0010   -2.6552    2.0683 H     1    ESP         0.0102
   2351 H           1.3464   -2.9778    2.0683 H     1    ESP         0.0107
   2352 H           1.7661   -3.1952    2.0683 H     1    ESP         0.0103
   2353 H           2.2288   -3.2914    2.0683 H     1    ESP         0.0097
   2354 H           2.3472   -3.6282    1.7355 H     1    ESP         0.0102
   2355 H           2.8075   -3.5764    1.7355 H     1    ESP         0.0094
   2356 H           2.8034   -3.8533    1.3500 H     1    ESP         0.0096
   2357 H           3.2421   -3.7202    1.3500 H     1    ESP         0.0087
   2358 H           3.0416   -4.0002    0.9235 H     1    ESP         0.0092
   2359 H           3.4782   -3.8311    0.9235 H     1    ESP         0.0081
   2360 H           3.8762   -3.5846    0.9235 H     1    ESP         0.0075
   2361 H           4.6500   -0.2304    0.4689 H     1    ESP        -0.0143
   2362 H           3.2567   -4.0585    0.4689 H     1    ESP         0.0086
   2363 H           3.6767   -3.8627    0.4689 H     1    ESP         0.0074
   2364 H           4.0564   -3.5968    0.4689 H     1    ESP         0.0067
   2365 H           4.3841   -3.2691    0.4689 H     1    ESP         0.0061
   2366 H           5.0472   -1.5599    0.0000 H     1    ESP         0.0002
   2367 H           5.0084   -1.1036    0.0000 H     1    ESP        -0.0031
   2368 H           4.8930   -0.6604    0.0000 H     1    ESP        -0.0078
   2369 H           4.7044   -0.2431    0.0000 H     1    ESP        -0.0147
   2370 H           3.3540   -4.0652    0.0000 H     1    ESP         0.0083
   2371 H           3.7629   -3.8591    0.0000 H     1    ESP         0.0072
   2372 H           4.1311   -3.5867    0.0000 H     1    ESP         0.0063
   2373 H           4.4479   -3.2561    0.0000 H     1    ESP         0.0057
   2374 H           4.7044   -2.8767    0.0000 H     1    ESP         0.0049
   2375 H           4.8930   -2.4594    0.0000 H     1    ESP         0.0039
   2376 H           5.0084   -2.0162    0.0000 H     1    ESP         0.0024
   2377 H           4.6500   -0.2304   -0.4689 H     1    ESP        -0.0143
   2378 H           3.2567   -4.0585   -0.4689 H     1    ESP         0.0086
   2379 H           3.6767   -3.8627   -0.4689 H     1    ESP         0.0074
   2380 H           4.0564   -3.5968   -0.4689 H     1    ESP         0.0067
   2381 H           4.3841   -3.2691   -0.4689 H     1    ESP         0.0061
   2382 H           3.0416   -4.0002   -0.9235 H     1    ESP         0.0092
   2383 H           3.4782   -3.8311   -0.9235 H     1    ESP         0.0081
   2384 H           3.8762   -3.5846   -0.9235 H     1    ESP         0.0075
   2385 H           2.8034   -3.8533   -1.3500 H     1    ESP         0.0096
   2386 H           3.2421   -3.7202   -1.3500 H     1    ESP         0.0087
   2387 H           2.3472   -3.6282   -1.7355 H     1    ESP         0.0102
   2388 H           2.8075   -3.5764   -1.7355 H     1    ESP         0.0094
   2389 H           0.7554   -2.2514   -2.0683 H     1    ESP         0.0081
   2390 H           1.0010   -2.6552   -2.0683 H     1    ESP         0.0102
   2391 H           1.3464   -2.9778   -2.0683 H     1    ESP         0.0107
   2392 H           1.7661   -3.1952   -2.0683 H     1    ESP         0.0103
   2393 H           2.2288   -3.2914   -2.0683 H     1    ESP         0.0097
   2394 H           0.9972   -1.5599   -2.3383 H     1    ESP         0.0042
   2395 H           1.0787   -2.0217   -2.3383 H     1    ESP         0.0064
   2396 H           1.3131   -2.4277   -2.3383 H     1    ESP         0.0081
   2397 H           1.6722   -2.7291   -2.3383 H     1    ESP         0.0088
   2398 H           1.4238   -1.5599   -2.5372 H     1    ESP         0.0051
   2399 H           1.5475   -2.0217   -2.5372 H     1    ESP         0.0067
   2400 H           2.2063    0.8204    2.5200 H     1    ESP        -0.0162
   2401 H           2.6693    0.8204    2.4771 H     1    ESP        -0.0176
   2402 H           2.4378    1.2214    2.4771 H     1    ESP        -0.0206
   2403 H           1.9747    1.2214    2.4771 H     1    ESP        -0.0194
   2404 H           3.1166    0.8204    2.3498 H     1    ESP        -0.0192
   2405 H           2.9946    1.2756    2.3498 H     1    ESP        -0.0228
   2406 H           2.6614    1.6088    2.3498 H     1    ESP        -0.0244
   2407 H           2.2063    1.7307    2.3498 H     1    ESP        -0.0241
   2408 H           1.7511    1.6088    2.3498 H     1    ESP        -0.0221
   2409 H           1.4179    1.2756    2.3498 H     1    ESP        -0.0185
   2410 H           2.9946    0.3652    2.3498 H     1    ESP        -0.0135
   2411 H           3.5329    0.8204    2.1425 H     1    ESP        -0.0209
   2412 H           3.4529    1.2741    2.1425 H     1    ESP        -0.0245
   2413 H           3.2225    1.6731    2.1425 H     1    ESP        -0.0266
   2414 H           2.8696    1.9693    2.1425 H     1    ESP        -0.0275
   2415 H           2.4366    2.1268    2.1425 H     1    ESP        -0.0274
   2416 H           1.9759    2.1268    2.1425 H     1    ESP        -0.0264
   2417 H           1.5430    1.9693    2.1425 H     1    ESP        -0.0243
   2418 H           3.4529    0.3667    2.1425 H     1    ESP        -0.0155
   2419 H           3.9040    0.8204    1.8623 H     1    ESP        -0.0227
   2420 H           3.8410    1.2784    1.8623 H     1    ESP        -0.0262
   2421 H           3.6568    1.7025    1.8623 H     1    ESP        -0.0284
   2422 H           3.3650    2.0611    1.8623 H     1    ESP        -0.0296
   2423 H           2.9873    2.3278    1.8623 H     1    ESP        -0.0301
   2424 H           2.5517    2.4826    1.8623 H     1    ESP        -0.0300
   2425 H           2.0904    2.5141    1.8623 H     1    ESP        -0.0292
   2426 H           1.6377    2.4201    1.8623 H     1    ESP        -0.0276
   2427 H           3.8410    0.3624    1.8623 H     1    ESP        -0.0174
   2428 H           4.2173    0.8204    1.5186 H     1    ESP        -0.0246
   2429 H           4.1631    1.2842    1.5186 H     1    ESP        -0.0279
   2430 H           4.0034    1.7229    1.5186 H     1    ESP        -0.0300
   2431 H           3.7468    2.1130    1.5186 H     1    ESP        -0.0313
   2432 H           3.4071    2.4335    1.5186 H     1    ESP        -0.0319
   2433 H           3.0028    2.6669    1.5186 H     1    ESP        -0.0321
   2434 H           2.5555    2.8008    1.5186 H     1    ESP        -0.0319
   2435 H           2.0893    2.8280    1.5186 H     1    ESP        -0.0311
   2436 H           1.6295    2.7469    1.5186 H     1    ESP        -0.0296
   2437 H           4.1631    0.3566    1.5186 H     1    ESP        -0.0195
   2438 H           4.4621    0.8204    1.1233 H     1    ESP        -0.0262
   2439 H           4.4159    1.2745    1.1233 H     1    ESP        -0.0293
   2440 H           4.2793    1.7100    1.1233 H     1    ESP        -0.0313
   2441 H           4.0577    2.1091    1.1233 H     1    ESP        -0.0325
   2442 H           3.7604    2.4554    1.1233 H     1    ESP        -0.0332
   2443 H           3.3995    2.7348    1.1233 H     1    ESP        -0.0336
   2444 H           2.9897    2.9358    1.1233 H     1    ESP        -0.0336
   2445 H           2.5479    3.0502    1.1233 H     1    ESP        -0.0333
   2446 H           2.0920    3.0733    1.1233 H     1    ESP        -0.0325
   2447 H           4.4159    0.3663    1.1233 H     1    ESP        -0.0217
   2448 H           4.6301    0.8204    0.6896 H     1    ESP        -0.0275
   2449 H           4.5863    1.2791    0.6896 H     1    ESP        -0.0304
   2450 H           4.4564    1.7212    0.6896 H     1    ESP        -0.0323
   2451 H           4.2453    2.1308    0.6896 H     1    ESP        -0.0335
   2452 H           3.9604    2.4930    0.6896 H     1    ESP        -0.0342
   2453 H           3.6122    2.7948    0.6896 H     1    ESP        -0.0345
   2454 H           3.2131    3.0252    0.6896 H     1    ESP        -0.0346
   2455 H           2.7777    3.1759    0.6896 H     1    ESP        -0.0344
   2456 H           2.3216    3.2414    0.6896 H     1    ESP        -0.0339
   2457 H           1.8613    3.2195    0.6896 H     1    ESP        -0.0328
   2458 H           4.5863    0.3617    0.6896 H     1    ESP        -0.0233
   2459 H           4.7155    0.8204    0.2325 H     1    ESP        -0.0281
   2460 H           4.6728    1.2815    0.2325 H     1    ESP        -0.0309
   2461 H           4.5461    1.7268    0.2325 H     1    ESP        -0.0328
   2462 H           4.3397    2.1413    0.2325 H     1    ESP        -0.0340
   2463 H           4.0606    2.5109    0.2325 H     1    ESP        -0.0346
   2464 H           3.7184    2.8228    0.2325 H     1    ESP        -0.0350
   2465 H           3.3247    3.0666    0.2325 H     1    ESP        -0.0351
   2466 H           2.8929    3.2339    0.2325 H     1    ESP        -0.0350
   2467 H           2.4378    3.3189    0.2325 H     1    ESP        -0.0346
   2468 H           1.9747    3.3189    0.2325 H     1    ESP        -0.0336
   2469 H           4.6728    0.3593    0.2325 H     1    ESP        -0.0242
   2470 H           4.7155    0.8204   -0.2325 H     1    ESP        -0.0281
   2471 H           4.6728    1.2815   -0.2325 H     1    ESP        -0.0309
   2472 H           4.5461    1.7268   -0.2325 H     1    ESP        -0.0328
   2473 H           4.3397    2.1413   -0.2325 H     1    ESP        -0.0340
   2474 H           4.0606    2.5109   -0.2325 H     1    ESP        -0.0346
   2475 H           3.7184    2.8228   -0.2325 H     1    ESP        -0.0350
   2476 H           3.3247    3.0666   -0.2325 H     1    ESP        -0.0351
   2477 H           2.8929    3.2339   -0.2325 H     1    ESP        -0.0350
   2478 H           2.4378    3.3189   -0.2325 H     1    ESP        -0.0346
   2479 H           1.9747    3.3189   -0.2325 H     1    ESP        -0.0336
   2480 H           4.6728    0.3593   -0.2325 H     1    ESP        -0.0242
   2481 H           4.6301    0.8204   -0.6896 H     1    ESP        -0.0275
   2482 H           4.5863    1.2791   -0.6896 H     1    ESP        -0.0304
   2483 H           4.4564    1.7212   -0.6896 H     1    ESP        -0.0323
   2484 H           4.2453    2.1308   -0.6896 H     1    ESP        -0.0335
   2485 H           3.9604    2.4930   -0.6896 H     1    ESP        -0.0342
   2486 H           3.6122    2.7948   -0.6896 H     1    ESP        -0.0345
   2487 H           3.2131    3.0252   -0.6896 H     1    ESP        -0.0346
   2488 H           2.7777    3.1759   -0.6896 H     1    ESP        -0.0344
   2489 H           2.3216    3.2414   -0.6896 H     1    ESP        -0.0339
   2490 H           1.8613    3.2195   -0.6896 H     1    ESP        -0.0328
   2491 H           4.5863    0.3617   -0.6896 H     1    ESP        -0.0233
   2492 H           4.4621    0.8204   -1.1233 H     1    ESP        -0.0262
   2493 H           4.4159    1.2745   -1.1233 H     1    ESP        -0.0293
   2494 H           4.2793    1.7100   -1.1233 H     1    ESP        -0.0313
   2495 H           4.0577    2.1091   -1.1233 H     1    ESP        -0.0325
   2496 H           3.7604    2.4554   -1.1233 H     1    ESP        -0.0332
   2497 H           3.3995    2.7348   -1.1233 H     1    ESP        -0.0336
   2498 H           2.9897    2.9358   -1.1233 H     1    ESP        -0.0336
   2499 H           2.5479    3.0502   -1.1233 H     1    ESP        -0.0333
   2500 H           2.0920    3.0733   -1.1233 H     1    ESP        -0.0325
   2501 H           4.4159    0.3663   -1.1233 H     1    ESP        -0.0217
   2502 H           4.2173    0.8204   -1.5186 H     1    ESP        -0.0246
   2503 H           4.1631    1.2842   -1.5186 H     1    ESP        -0.0279
   2504 H           4.0034    1.7229   -1.5186 H     1    ESP        -0.0300
   2505 H           3.7468    2.1130   -1.5186 H     1    ESP        -0.0313
   2506 H           3.4071    2.4335   -1.5186 H     1    ESP        -0.0319
   2507 H           3.0028    2.6669   -1.5186 H     1    ESP        -0.0321
   2508 H           2.5555    2.8008   -1.5186 H     1    ESP        -0.0319
   2509 H           2.0893    2.8280   -1.5186 H     1    ESP        -0.0311
   2510 H           1.6295    2.7469   -1.5186 H     1    ESP        -0.0296
   2511 H           4.1631    0.3566   -1.5186 H     1    ESP        -0.0195
   2512 H           3.9040    0.8204   -1.8623 H     1    ESP        -0.0227
   2513 H           3.8410    1.2784   -1.8623 H     1    ESP        -0.0262
   2514 H           3.6568    1.7025   -1.8623 H     1    ESP        -0.0284
   2515 H           3.3650    2.0611   -1.8623 H     1    ESP        -0.0296
   2516 H           2.9873    2.3278   -1.8623 H     1    ESP        -0.0301
   2517 H           2.5517    2.4826   -1.8623 H     1    ESP        -0.0300
   2518 H           2.0904    2.5141   -1.8623 H     1    ESP        -0.0292
   2519 H           1.6377    2.4201   -1.8623 H     1    ESP        -0.0276
   2520 H           3.8410    0.3624   -1.8623 H     1    ESP        -0.0174
   2521 H           3.5329    0.8204   -2.1425 H     1    ESP        -0.0209
   2522 H           3.4529    1.2741   -2.1425 H     1    ESP        -0.0245
   2523 H           3.2225    1.6731   -2.1425 H     1    ESP        -0.0266
   2524 H           2.8696    1.9693   -2.1425 H     1    ESP        -0.0275
   2525 H           2.4366    2.1268   -2.1425 H     1    ESP        -0.0274
   2526 H           1.9759    2.1268   -2.1425 H     1    ESP        -0.0264
   2527 H           1.5430    1.9693   -2.1425 H     1    ESP        -0.0243
   2528 H           3.4529    0.3667   -2.1425 H     1    ESP        -0.0155
   2529 H           3.1166    0.8204   -2.3498 H     1    ESP        -0.0192
   2530 H           2.9946    1.2756   -2.3498 H     1    ESP        -0.0228
   2531 H           2.6614    1.6088   -2.3498 H     1    ESP        -0.0244
   2532 H           2.2063    1.7307   -2.3498 H     1    ESP        -0.0241
   2533 H           1.7511    1.6088   -2.3498 H     1    ESP        -0.0221
   2534 H           1.4179    1.2756   -2.3498 H     1    ESP        -0.0185
   2535 H           2.9946    0.3652   -2.3498 H     1    ESP        -0.0135
   2536 H           2.6693    0.8204   -2.4771 H     1    ESP        -0.0176
   2537 H           2.4378    1.2214   -2.4771 H     1    ESP        -0.0206
   2538 H           1.9747    1.2214   -2.4771 H     1    ESP        -0.0194
   2539 H           2.2063    0.8204   -2.5200 H     1    ESP        -0.0162
   2540 H          -3.6103    1.8108    1.9733 H     1    ESP         0.0078
   2541 H          -3.9319    1.4893    1.9733 H     1    ESP         0.0086
   2542 H          -4.0496    1.0500    1.9733 H     1    ESP         0.0082
   2543 H          -3.5185    2.2711    1.7475 H     1    ESP         0.0096
   2544 H          -3.9361    2.0632    1.7475 H     1    ESP         0.0108
   2545 H          -4.2505    1.7184    1.7475 H     1    ESP         0.0114
   2546 H          -4.4190    1.2833    1.7475 H     1    ESP         0.0114
   2547 H          -4.4190    0.8167    1.7475 H     1    ESP         0.0106
   2548 H          -3.3995    2.6388    1.4453 H     1    ESP         0.0111
   2549 H          -3.8378    2.5101    1.4453 H     1    ESP         0.0122
   2550 H          -4.2222    2.2631    1.4453 H     1    ESP         0.0131
   2551 H          -4.5214    1.9178    1.4453 H     1    ESP         0.0136
   2552 H          -4.7112    1.5022    1.4453 H     1    ESP         0.0137
   2553 H          -4.7762    1.0500    1.4453 H     1    ESP         0.0135
   2554 H          -4.7112    0.5978    1.4453 H     1    ESP         0.0129
   2555 H          -4.5214    0.1822    1.4453 H     1    ESP         0.0119
   2556 H          -3.5215    2.8875    1.0800 H     1    ESP         0.0130
   2557 H          -3.9675    2.7426    1.0800 H     1    ESP         0.0139
   2558 H          -4.3634    2.4913    1.0800 H     1    ESP         0.0146
   2559 H          -4.6844    2.1495    1.0800 H     1    ESP         0.0151
   2560 H          -4.9103    1.7386    1.0800 H     1    ESP         0.0153
   2561 H          -5.0269    1.2844    1.0800 H     1    ESP         0.0153
   2562 H          -5.0269    0.8155    1.0800 H     1    ESP         0.0151
   2563 H          -4.9103    0.3614    1.0800 H     1    ESP         0.0148
   2564 H          -4.6844   -0.0495    1.0800 H     1    ESP         0.0146
   2565 H          -3.6281    3.0528    0.6675 H     1    ESP         0.0143
   2566 H          -4.0623    2.9008    0.6675 H     1    ESP         0.0150
   2567 H          -4.4518    2.6561    0.6675 H     1    ESP         0.0156
   2568 H          -4.7771    2.3308    0.6675 H     1    ESP         0.0161
   2569 H          -5.0219    1.9413    0.6675 H     1    ESP         0.0164
   2570 H          -5.1738    1.5071    0.6675 H     1    ESP         0.0165
   2571 H          -5.2253    1.0500    0.6675 H     1    ESP         0.0164
   2572 H          -5.1738    0.5929    0.6675 H     1    ESP         0.0164
   2573 H          -5.0219    0.1587    0.6675 H     1    ESP         0.0164
   2574 H          -4.7771   -0.2308    0.6675 H     1    ESP         0.0170
   2575 H          -3.5185    3.1699    0.2258 H     1    ESP         0.0147
   2576 H          -3.9661    3.0456    0.2258 H     1    ESP         0.0153
   2577 H          -4.3765    2.8280    0.2258 H     1    ESP         0.0159
   2578 H          -4.7306    2.5273    0.2258 H     1    ESP         0.0164
   2579 H          -5.0117    2.1575    0.2258 H     1    ESP         0.0168
   2580 H          -5.2067    1.7359    0.2258 H     1    ESP         0.0170
   2581 H          -5.3066    1.2823    0.2258 H     1    ESP         0.0170
   2582 H          -5.3066    0.8177    0.2258 H     1    ESP         0.0170
   2583 H          -5.2067    0.3641    0.2258 H     1    ESP         0.0171
   2584 H          -5.0117   -0.0575    0.2258 H     1    ESP         0.0176
   2585 H          -3.5185    3.1699   -0.2258 H     1    ESP         0.0147
   2586 H          -3.9661    3.0456   -0.2258 H     1    ESP         0.0153
   2587 H          -4.3765    2.8280   -0.2258 H     1    ESP         0.0159
   2588 H          -4.7306    2.5273   -0.2258 H     1    ESP         0.0164
   2589 H          -5.0117    2.1575   -0.2258 H     1    ESP         0.0168
   2590 H          -5.2067    1.7359   -0.2258 H     1    ESP         0.0170
   2591 H          -5.3066    1.2823   -0.2258 H     1    ESP         0.0170
   2592 H          -5.3066    0.8177   -0.2258 H     1    ESP         0.0170
   2593 H          -5.2067    0.3641   -0.2258 H     1    ESP         0.0171
   2594 H          -5.0117   -0.0575   -0.2258 H     1    ESP         0.0176
   2595 H          -3.6281    3.0528   -0.6675 H     1    ESP         0.0143
   2596 H          -4.0623    2.9008   -0.6675 H     1    ESP         0.0150
   2597 H          -4.4518    2.6561   -0.6675 H     1    ESP         0.0156
   2598 H          -4.7771    2.3308   -0.6675 H     1    ESP         0.0161
   2599 H          -5.0219    1.9413   -0.6675 H     1    ESP         0.0164
   2600 H          -5.1738    1.5071   -0.6675 H     1    ESP         0.0165
   2601 H          -5.2253    1.0500   -0.6675 H     1    ESP         0.0164
   2602 H          -5.1738    0.5929   -0.6675 H     1    ESP         0.0164
   2603 H          -5.0219    0.1587   -0.6675 H     1    ESP         0.0164
   2604 H          -4.7771   -0.2308   -0.6675 H     1    ESP         0.0170
   2605 H          -3.5215    2.8875   -1.0800 H     1    ESP         0.0130
   2606 H          -3.9675    2.7426   -1.0800 H     1    ESP         0.0139
   2607 H          -4.3634    2.4913   -1.0800 H     1    ESP         0.0146
   2608 H          -4.6844    2.1495   -1.0800 H     1    ESP         0.0151
   2609 H          -4.9103    1.7386   -1.0800 H     1    ESP         0.0153
   2610 H          -5.0269    1.2844   -1.0800 H     1    ESP         0.0153
   2611 H          -5.0269    0.8155   -1.0800 H     1    ESP         0.0151
   2612 H          -4.9103    0.3614   -1.0800 H     1    ESP         0.0148
   2613 H          -4.6844   -0.0495   -1.0800 H     1    ESP         0.0146
   2614 H          -3.3995    2.6388   -1.4453 H     1    ESP         0.0111
   2615 H          -3.8378    2.5101   -1.4453 H     1    ESP         0.0122
   2616 H          -4.2222    2.2631   -1.4453 H     1    ESP         0.0131
   2617 H          -4.5214    1.9178   -1.4453 H     1    ESP         0.0136
   2618 H          -4.7112    1.5022   -1.4453 H     1    ESP         0.0137
   2619 H          -4.7762    1.0500   -1.4453 H     1    ESP         0.0135
   2620 H          -4.7112    0.5978   -1.4453 H     1    ESP         0.0129
   2621 H          -4.5214    0.1822   -1.4453 H     1    ESP         0.0119
   2622 H          -3.5185    2.2711   -1.7475 H     1    ESP         0.0096
   2623 H          -3.9361    2.0632   -1.7475 H     1    ESP         0.0108
   2624 H          -4.2505    1.7184   -1.7475 H     1    ESP         0.0114
   2625 H          -4.4190    1.2833   -1.7475 H     1    ESP         0.0114
   2626 H          -4.4190    0.8167   -1.7475 H     1    ESP         0.0106
   2627 H          -3.6103    1.8108   -1.9733 H     1    ESP         0.0078
   2628 H          -3.9319    1.4893   -1.9733 H     1    ESP         0.0086
   2629 H          -4.0496    1.0500   -1.9733 H     1    ESP         0.0082
   2630 H          -3.8517   -1.5752    1.9733 H     1    ESP         0.0074
   2631 H          -3.7340   -2.0145    1.9733 H     1    ESP         0.0086
   2632 H          -3.4125   -2.3361    1.9733 H     1    ESP         0.0087
   2633 H          -4.2212   -1.3419    1.7475 H     1    ESP         0.0095
   2634 H          -4.2212   -1.8085    1.7475 H     1    ESP         0.0107
   2635 H          -4.0526   -2.2436    1.7475 H     1    ESP         0.0113
   2636 H          -3.7383   -2.5884    1.7475 H     1    ESP         0.0115
   2637 H          -3.3206   -2.7964    1.7475 H     1    ESP         0.0112
   2638 H          -2.8560   -2.8394    1.7475 H     1    ESP         0.0104
   2639 H          -4.5133   -1.1230    1.4453 H     1    ESP         0.0117
   2640 H          -4.5784   -1.5752    1.4453 H     1    ESP         0.0124
   2641 H          -4.5133   -2.0275    1.4453 H     1    ESP         0.0130
   2642 H          -4.3236   -2.4431    1.4453 H     1    ESP         0.0133
   2643 H          -4.0244   -2.7884    1.4453 H     1    ESP         0.0135
   2644 H          -3.6400   -3.0354    1.4453 H     1    ESP         0.0135
   2645 H          -3.2016   -3.1641    1.4453 H     1    ESP         0.0133
   2646 H          -2.7447   -3.1641    1.4453 H     1    ESP         0.0131
   2647 H          -4.7124   -0.8866    1.0800 H     1    ESP         0.0140
   2648 H          -4.8290   -1.3408    1.0800 H     1    ESP         0.0141
   2649 H          -4.8290   -1.8097    1.0800 H     1    ESP         0.0144
   2650 H          -4.7124   -2.2638    1.0800 H     1    ESP         0.0147
   2651 H          -4.4865   -2.6747    1.0800 H     1    ESP         0.0149
   2652 H          -4.1656   -3.0166    1.0800 H     1    ESP         0.0150
   2653 H          -3.7696   -3.2678    1.0800 H     1    ESP         0.0151
   2654 H          -3.3237   -3.4127    1.0800 H     1    ESP         0.0151
   2655 H          -2.8557   -3.4422    1.0800 H     1    ESP         0.0153
   2656 H          -4.8240   -0.6839    0.6675 H     1    ESP         0.0162
   2657 H          -4.9760   -1.1181    0.6675 H     1    ESP         0.0155
   2658 H          -5.0275   -1.5752    0.6675 H     1    ESP         0.0154
   2659 H          -4.9760   -2.0323    0.6675 H     1    ESP         0.0155
   2660 H          -4.8240   -2.4665    0.6675 H     1    ESP         0.0157
   2661 H          -4.5793   -2.8561    0.6675 H     1    ESP         0.0159
   2662 H          -4.2540   -3.1813    0.6675 H     1    ESP         0.0160
   2663 H          -3.8645   -3.4261    0.6675 H     1    ESP         0.0161
   2664 H          -3.4303   -3.5780    0.6675 H     1    ESP         0.0163
   2665 H          -2.9732   -3.6295    0.6675 H     1    ESP         0.0167
   2666 H          -2.5161   -3.5780    0.6675 H     1    ESP         0.0177
   2667 H          -4.8138   -0.4677    0.2258 H     1    ESP         0.0183
   2668 H          -5.0089   -0.8893    0.2258 H     1    ESP         0.0167
   2669 H          -5.1088   -1.3430    0.2258 H     1    ESP         0.0161
   2670 H          -5.1088   -1.8075    0.2258 H     1    ESP         0.0160
   2671 H          -5.0089   -2.2611    0.2258 H     1    ESP         0.0161
   2672 H          -4.8138   -2.6827    0.2258 H     1    ESP         0.0163
   2673 H          -4.5327   -3.0525    0.2258 H     1    ESP         0.0164
   2674 H          -4.1787   -3.3532    0.2258 H     1    ESP         0.0165
   2675 H          -3.7683   -3.5708    0.2258 H     1    ESP         0.0167
   2676 H          -3.3207   -3.6951    0.2258 H     1    ESP         0.0170
   2677 H          -2.8569   -3.7202    0.2258 H     1    ESP         0.0177
   2678 H          -2.3985   -3.6451    0.2258 H     1    ESP         0.0192
   2679 H          -4.8138   -0.4677   -0.2258 H     1    ESP         0.0183
   2680 H          -5.0089   -0.8893   -0.2258 H     1    ESP         0.0167
   2681 H          -5.1088   -1.3430   -0.2258 H     1    ESP         0.0161
   2682 H          -5.1088   -1.8075   -0.2258 H     1    ESP         0.0160
   2683 H          -5.0089   -2.2611   -0.2258 H     1    ESP         0.0161
   2684 H          -4.8138   -2.6827   -0.2258 H     1    ESP         0.0163
   2685 H          -4.5327   -3.0525   -0.2258 H     1    ESP         0.0164
   2686 H          -4.1787   -3.3532   -0.2258 H     1    ESP         0.0165
   2687 H          -3.7683   -3.5708   -0.2258 H     1    ESP         0.0167
   2688 H          -3.3207   -3.6951   -0.2258 H     1    ESP         0.0170
   2689 H          -2.8569   -3.7202   -0.2258 H     1    ESP         0.0177
   2690 H          -2.3985   -3.6451   -0.2258 H     1    ESP         0.0192
   2691 H          -4.8240   -0.6839   -0.6675 H     1    ESP         0.0162
   2692 H          -4.9760   -1.1181   -0.6675 H     1    ESP         0.0155
   2693 H          -5.0275   -1.5752   -0.6675 H     1    ESP         0.0154
   2694 H          -4.9760   -2.0323   -0.6675 H     1    ESP         0.0155
   2695 H          -4.8240   -2.4665   -0.6675 H     1    ESP         0.0157
   2696 H          -4.5793   -2.8561   -0.6675 H     1    ESP         0.0159
   2697 H          -4.2540   -3.1813   -0.6675 H     1    ESP         0.0160
   2698 H          -3.8645   -3.4261   -0.6675 H     1    ESP         0.0161
   2699 H          -3.4303   -3.5780   -0.6675 H     1    ESP         0.0163
   2700 H          -2.9732   -3.6295   -0.6675 H     1    ESP         0.0167
   2701 H          -2.5161   -3.5780   -0.6675 H     1    ESP         0.0177
   2702 H          -4.7124   -0.8866   -1.0800 H     1    ESP         0.0140
   2703 H          -4.8290   -1.3408   -1.0800 H     1    ESP         0.0141
   2704 H          -4.8290   -1.8097   -1.0800 H     1    ESP         0.0144
   2705 H          -4.7124   -2.2638   -1.0800 H     1    ESP         0.0147
   2706 H          -4.4865   -2.6747   -1.0800 H     1    ESP         0.0149
   2707 H          -4.1656   -3.0166   -1.0800 H     1    ESP         0.0150
   2708 H          -3.7696   -3.2678   -1.0800 H     1    ESP         0.0151
   2709 H          -3.3237   -3.4127   -1.0800 H     1    ESP         0.0151
   2710 H          -2.8557   -3.4422   -1.0800 H     1    ESP         0.0153
   2711 H          -4.5133   -1.1230   -1.4453 H     1    ESP         0.0117
   2712 H          -4.5784   -1.5752   -1.4453 H     1    ESP         0.0124
   2713 H          -4.5133   -2.0275   -1.4453 H     1    ESP         0.0130
   2714 H          -4.3236   -2.4431   -1.4453 H     1    ESP         0.0133
   2715 H          -4.0244   -2.7884   -1.4453 H     1    ESP         0.0135
   2716 H          -3.6400   -3.0354   -1.4453 H     1    ESP         0.0135
   2717 H          -3.2016   -3.1641   -1.4453 H     1    ESP         0.0133
   2718 H          -2.7447   -3.1641   -1.4453 H     1    ESP         0.0131
   2719 H          -4.2212   -1.3419   -1.7475 H     1    ESP         0.0095
   2720 H          -4.2212   -1.8085   -1.7475 H     1    ESP         0.0107
   2721 H          -4.0526   -2.2436   -1.7475 H     1    ESP         0.0113
   2722 H          -3.7383   -2.5884   -1.7475 H     1    ESP         0.0115
   2723 H          -3.3206   -2.7964   -1.7475 H     1    ESP         0.0112
   2724 H          -2.8560   -2.8394   -1.7475 H     1    ESP         0.0104
   2725 H          -3.8517   -1.5752   -1.9733 H     1    ESP         0.0074
   2726 H          -3.7340   -2.0145   -1.9733 H     1    ESP         0.0086
   2727 H          -3.4125   -2.3361   -1.9733 H     1    ESP         0.0087
   2728 H          -0.4660   -3.2278    1.9733 H     1    ESP         0.0116
   2729 H          -0.0267   -3.1101    1.9733 H     1    ESP         0.0119
   2730 H          -1.2311   -3.3625    1.7475 H     1    ESP         0.0123
   2731 H          -0.8134   -3.5704    1.7475 H     1    ESP         0.0137
   2732 H          -0.3488   -3.6135    1.7475 H     1    ESP         0.0145
   2733 H           0.1000   -3.4858    1.7475 H     1    ESP         0.0150
   2734 H           0.4723   -3.2046    1.7475 H     1    ESP         0.0149
   2735 H          -1.5171   -3.5624    1.4453 H     1    ESP         0.0145
   2736 H          -1.1328   -3.8094    1.4453 H     1    ESP         0.0154
   2737 H          -0.6944   -3.9381    1.4453 H     1    ESP         0.0162
   2738 H          -0.2375   -3.9381    1.4453 H     1    ESP         0.0169
   2739 H           0.2009   -3.8094    1.4453 H     1    ESP         0.0176
   2740 H          -1.6583   -3.7906    1.0800 H     1    ESP         0.0166
   2741 H          -1.2624   -4.0419    1.0800 H     1    ESP         0.0171
   2742 H          -0.8165   -4.1868    1.0800 H     1    ESP         0.0177
   2743 H          -0.3485   -4.2162    1.0800 H     1    ESP         0.0184
   2744 H           0.1121   -4.1283    1.0800 H     1    ESP         0.0193
   2745 H           0.5364   -3.9287    1.0800 H     1    ESP         0.0204
   2746 H          -2.0721   -3.6301    0.6675 H     1    ESP         0.0186
   2747 H          -1.7468   -3.9554    0.6675 H     1    ESP         0.0181
   2748 H          -1.3573   -4.2001    0.6675 H     1    ESP         0.0182
   2749 H          -0.9231   -4.3521    0.6675 H     1    ESP         0.0187
   2750 H          -0.4660   -4.4036    0.6675 H     1    ESP         0.0193
   2751 H          -0.0088   -4.3521    0.6675 H     1    ESP         0.0202
   2752 H           0.4254   -4.2001    0.6675 H     1    ESP         0.0215
   2753 H          -2.0255   -3.8266    0.2258 H     1    ESP         0.0193
   2754 H          -1.6715   -4.1273    0.2258 H     1    ESP         0.0188
   2755 H          -1.2611   -4.3449    0.2258 H     1    ESP         0.0189
   2756 H          -0.8135   -4.4692    0.2258 H     1    ESP         0.0194
   2757 H          -0.3497   -4.4943    0.2258 H     1    ESP         0.0201
   2758 H           0.1087   -4.4192    0.2258 H     1    ESP         0.0211
   2759 H          -2.0255   -3.8266   -0.2258 H     1    ESP         0.0193
   2760 H          -1.6715   -4.1273   -0.2258 H     1    ESP         0.0188
   2761 H          -1.2611   -4.3449   -0.2258 H     1    ESP         0.0189
   2762 H          -0.8135   -4.4692   -0.2258 H     1    ESP         0.0194
   2763 H          -0.3497   -4.4943   -0.2258 H     1    ESP         0.0201
   2764 H           0.1087   -4.4192   -0.2258 H     1    ESP         0.0211
   2765 H          -2.0721   -3.6301   -0.6675 H     1    ESP         0.0186
   2766 H          -1.7468   -3.9554   -0.6675 H     1    ESP         0.0181
   2767 H          -1.3573   -4.2001   -0.6675 H     1    ESP         0.0182
   2768 H          -0.9231   -4.3521   -0.6675 H     1    ESP         0.0187
   2769 H          -0.4660   -4.4036   -0.6675 H     1    ESP         0.0193
   2770 H          -0.0088   -4.3521   -0.6675 H     1    ESP         0.0202
   2771 H           0.4254   -4.2001   -0.6675 H     1    ESP         0.0215
   2772 H          -1.6583   -3.7906   -1.0800 H     1    ESP         0.0166
   2773 H          -1.2624   -4.0419   -1.0800 H     1    ESP         0.0171
   2774 H          -0.8165   -4.1868   -1.0800 H     1    ESP         0.0177
   2775 H          -0.3485   -4.2162   -1.0800 H     1    ESP         0.0184
   2776 H           0.1121   -4.1283   -1.0800 H     1    ESP         0.0193
   2777 H           0.5364   -3.9287   -1.0800 H     1    ESP         0.0204
   2778 H          -1.5171   -3.5624   -1.4453 H     1    ESP         0.0145
   2779 H          -1.1328   -3.8094   -1.4453 H     1    ESP         0.0154
   2780 H          -0.6944   -3.9381   -1.4453 H     1    ESP         0.0162
   2781 H          -0.2375   -3.9381   -1.4453 H     1    ESP         0.0169
   2782 H           0.2009   -3.8094   -1.4453 H     1    ESP         0.0176
   2783 H          -1.2311   -3.3625   -1.7475 H     1    ESP         0.0123
   2784 H          -0.8134   -3.5704   -1.7475 H     1    ESP         0.0137
   2785 H          -0.3488   -3.6135   -1.7475 H     1    ESP         0.0145
   2786 H           0.1000   -3.4858   -1.7475 H     1    ESP         0.0150
   2787 H           0.4723   -3.2046   -1.7475 H     1    ESP         0.0149
   2788 H          -0.4660   -3.2278   -1.9733 H     1    ESP         0.0116
   2789 H          -0.0267   -3.1101   -1.9733 H     1    ESP         0.0119
   2790 H           0.9511   -2.8869    1.9733 H     1    ESP         0.0116
   2791 H           1.2727   -3.2085    1.9733 H     1    ESP         0.0117
   2792 H           1.7119   -3.3262    1.9733 H     1    ESP         0.0109
   2793 H           0.6325   -3.1160    1.7475 H     1    ESP         0.0147
   2794 H           0.9468   -3.4608    1.7475 H     1    ESP         0.0143
   2795 H           1.3645   -3.6688    1.7475 H     1    ESP         0.0131
   2796 H           1.8291   -3.7118    1.7475 H     1    ESP         0.0116
   2797 H           0.6607   -3.6607    1.4453 H     1    ESP         0.0177
   2798 H           1.0451   -3.9077    1.4453 H     1    ESP         0.0157
   2799 H           1.4835   -4.0365    1.4453 H     1    ESP         0.0139
   2800 H           1.9404   -4.0365    1.4453 H     1    ESP         0.0122
   2801 H           2.3787   -3.9077    1.4453 H     1    ESP         0.0107
   2802 H           0.9155   -4.1402    1.0800 H     1    ESP         0.0178
   2803 H           1.3614   -4.2851    1.0800 H     1    ESP         0.0154
   2804 H           1.8294   -4.3145    1.0800 H     1    ESP         0.0134
   2805 H           2.2900   -4.2267    1.0800 H     1    ESP         0.0116
   2806 H           2.7143   -4.0270    1.0800 H     1    ESP         0.0102
   2807 H           0.8206   -4.2985    0.6675 H     1    ESP         0.0194
   2808 H           1.2548   -4.4504    0.6675 H     1    ESP         0.0167
   2809 H           1.7119   -4.5019    0.6675 H     1    ESP         0.0144
   2810 H           2.1690   -4.4504    0.6675 H     1    ESP         0.0126
   2811 H           2.6032   -4.2985    0.6675 H     1    ESP         0.0109
   2812 H           0.9168   -4.4432    0.2258 H     1    ESP         0.0192
   2813 H           1.3644   -4.5675    0.2258 H     1    ESP         0.0165
   2814 H           1.8282   -4.5926    0.2258 H     1    ESP         0.0142
   2815 H           2.2866   -4.5175    0.2258 H     1    ESP         0.0124
   2816 H           2.7181   -4.3455    0.2258 H     1    ESP         0.0107
   2817 H           0.9168   -4.4432   -0.2258 H     1    ESP         0.0192
   2818 H           1.3644   -4.5675   -0.2258 H     1    ESP         0.0165
   2819 H           1.8282   -4.5926   -0.2258 H     1    ESP         0.0142
   2820 H           2.2866   -4.5175   -0.2258 H     1    ESP         0.0124
   2821 H           2.7181   -4.3455   -0.2258 H     1    ESP         0.0107
   2822 H           0.8206   -4.2985   -0.6675 H     1    ESP         0.0194
   2823 H           1.2548   -4.4504   -0.6675 H     1    ESP         0.0167
   2824 H           1.7119   -4.5019   -0.6675 H     1    ESP         0.0144
   2825 H           2.1690   -4.4504   -0.6675 H     1    ESP         0.0126
   2826 H           2.6032   -4.2985   -0.6675 H     1    ESP         0.0109
   2827 H           0.9155   -4.1402   -1.0800 H     1    ESP         0.0178
   2828 H           1.3614   -4.2851   -1.0800 H     1    ESP         0.0154
   2829 H           1.8294   -4.3145   -1.0800 H     1    ESP         0.0134
   2830 H           2.2900   -4.2267   -1.0800 H     1    ESP         0.0116
   2831 H           2.7143   -4.0270   -1.0800 H     1    ESP         0.0102
   2832 H           0.6607   -3.6607   -1.4453 H     1    ESP         0.0177
   2833 H           1.0451   -3.9077   -1.4453 H     1    ESP         0.0157
   2834 H           1.4835   -4.0365   -1.4453 H     1    ESP         0.0139
   2835 H           1.9404   -4.0365   -1.4453 H     1    ESP         0.0122
   2836 H           2.3787   -3.9077   -1.4453 H     1    ESP         0.0107
   2837 H           0.6325   -3.1160   -1.7475 H     1    ESP         0.0147
   2838 H           0.9468   -3.4608   -1.7475 H     1    ESP         0.0143
   2839 H           1.3645   -3.6688   -1.7475 H     1    ESP         0.0131
   2840 H           1.8291   -3.7118   -1.7475 H     1    ESP         0.0116
   2841 H           0.9511   -2.8869   -1.9733 H     1    ESP         0.0116
   2842 H           1.2727   -3.2085   -1.9733 H     1    ESP         0.0117
   2843 H           1.7119   -3.3262   -1.9733 H     1    ESP         0.0109
   2844 H           5.0506   -1.5849   -0.2140 H     1    ESP         0.0004
   2845 H           4.9991   -2.0420   -0.2140 H     1    ESP         0.0027
   2846 H           5.1445   -1.5849   -0.6557 H     1    ESP         0.0009
   2847 H           5.0942   -1.1231   -0.6557 H     1    ESP        -0.0020
   2848 H           4.9459   -0.6829   -0.6557 H     1    ESP        -0.0062
   2849 H           4.7064   -0.2849   -0.6557 H     1    ESP        -0.0122
   2850 H           4.3870   -3.2221   -0.6557 H     1    ESP         0.0064
   2851 H           4.7064   -2.8849   -0.6557 H     1    ESP         0.0055
   2852 H           4.9459   -2.4869   -0.6557 H     1    ESP         0.0044
   2853 H           5.0942   -2.0467   -0.6557 H     1    ESP         0.0030
   2854 H           5.1445   -1.5849   -1.1073 H     1    ESP         0.0018
   2855 H           5.0942   -1.1231   -1.1073 H     1    ESP        -0.0009
   2856 H           4.9459   -0.6829   -1.1073 H     1    ESP        -0.0046
   2857 H           4.7064   -0.2849   -1.1073 H     1    ESP        -0.0097
   2858 H           4.3870    0.0524   -1.1073 H     1    ESP        -0.0170
   2859 H           4.0025   -3.4828   -1.1073 H     1    ESP         0.0075
   2860 H           4.3870   -3.2221   -1.1073 H     1    ESP         0.0068
   2861 H           4.7064   -2.8849   -1.1073 H     1    ESP         0.0061
   2862 H           4.9459   -2.4869   -1.1073 H     1    ESP         0.0051
   2863 H           5.0942   -2.0467   -1.1073 H     1    ESP         0.0037
   2864 H           5.0506   -1.5849   -1.5490 H     1    ESP         0.0027
   2865 H           4.9991   -1.1278   -1.5490 H     1    ESP         0.0003
   2866 H           4.8471   -0.6936   -1.5490 H     1    ESP        -0.0030
   2867 H           4.6024   -0.3041   -1.5490 H     1    ESP        -0.0073
   2868 H           4.2771    0.0212   -1.5490 H     1    ESP        -0.0129
   2869 H           3.4534   -3.5877   -1.5490 H     1    ESP         0.0085
   2870 H           3.8876   -3.4357   -1.5490 H     1    ESP         0.0079
   2871 H           4.2771   -3.1910   -1.5490 H     1    ESP         0.0074
   2872 H           4.6024   -2.8657   -1.5490 H     1    ESP         0.0067
   2873 H           4.8471   -2.4762   -1.5490 H     1    ESP         0.0058
   2874 H           4.9991   -2.0420   -1.5490 H     1    ESP         0.0045
   2875 H           4.8669   -1.5849   -1.9615 H     1    ESP         0.0037
   2876 H           4.8081   -1.1197   -1.9615 H     1    ESP         0.0013
   2877 H           4.6355   -0.6837   -1.9615 H     1    ESP        -0.0017
   2878 H           4.3599   -0.3044   -1.9615 H     1    ESP        -0.0055
   2879 H           3.9986   -0.0055   -1.9615 H     1    ESP        -0.0100
   2880 H           2.6458   -3.4224   -1.9615 H     1    ESP         0.0094
   2881 H           3.1137   -3.4518   -1.9615 H     1    ESP         0.0088
   2882 H           3.5743   -3.3639   -1.9615 H     1    ESP         0.0084
   2883 H           3.9986   -3.1643   -1.9615 H     1    ESP         0.0080
   2884 H           4.3599   -2.8654   -1.9615 H     1    ESP         0.0074
   2885 H           4.6355   -2.4861   -1.9615 H     1    ESP         0.0066
   2886 H           4.8081   -2.0501   -1.9615 H     1    ESP         0.0054
   2887 H           4.6015   -1.5849   -2.3268 H     1    ESP         0.0044
   2888 H           4.5365   -1.1327   -2.3268 H     1    ESP         0.0023
   2889 H           4.3467   -0.7171   -2.3268 H     1    ESP        -0.0003
   2890 H           4.0475   -0.3718   -2.3268 H     1    ESP        -0.0034
   2891 H           3.6631   -0.1248   -2.3268 H     1    ESP        -0.0063
   2892 H           3.2247    0.0040   -2.3268 H     1    ESP        -0.0081
   2893 H           2.3295   -3.0450   -2.3268 H     1    ESP         0.0090
   2894 H           2.7678   -3.1737   -2.3268 H     1    ESP         0.0088
   2895 H           3.2247   -3.1737   -2.3268 H     1    ESP         0.0086
   2896 H           3.6631   -3.0450   -2.3268 H     1    ESP         0.0083
   2897 H           4.0475   -2.7980   -2.3268 H     1    ESP         0.0078
   2898 H           4.3467   -2.4527   -2.3268 H     1    ESP         0.0071
   2899 H           4.5365   -2.0371   -2.3268 H     1    ESP         0.0060
   2900 H           4.2659   -1.5849   -2.6290 H     1    ESP         0.0050
   2901 H           4.1802   -1.1262   -2.6290 H     1    ESP         0.0029
   2902 H           3.9345   -0.7296   -2.6290 H     1    ESP         0.0006
   2903 H           3.5622   -0.4484   -2.6290 H     1    ESP        -0.0016
   2904 H           3.1134   -0.3207   -2.6290 H     1    ESP        -0.0026
   2905 H           2.6488   -0.3637   -2.6290 H     1    ESP        -0.0017
   2906 H           2.2312   -0.5717   -2.6290 H     1    ESP         0.0008
   2907 H           1.9168   -0.9165   -2.6290 H     1    ESP         0.0033
   2908 H           1.7483   -1.3516   -2.6290 H     1    ESP         0.0050
   2909 H           1.7483   -1.8182   -2.6290 H     1    ESP         0.0064
   2910 H           1.9168   -2.2533   -2.6290 H     1    ESP         0.0074
   2911 H           2.2312   -2.5981   -2.6290 H     1    ESP         0.0081
   2912 H           2.6488   -2.8060   -2.6290 H     1    ESP         0.0083
   2913 H           3.1134   -2.8491   -2.6290 H     1    ESP         0.0083
   2914 H           3.5622   -2.7214   -2.6290 H     1    ESP         0.0080
   2915 H           3.9345   -2.4402   -2.6290 H     1    ESP         0.0075
   2916 H           4.1802   -2.0435   -2.6290 H     1    ESP         0.0065
   2917 H           3.8748   -1.5849   -2.8547 H     1    ESP         0.0053
   2918 H           3.7571   -1.1456   -2.8547 H     1    ESP         0.0035
   2919 H           3.4356   -0.8240   -2.8547 H     1    ESP         0.0017
   2920 H           2.9963   -0.7063   -2.8547 H     1    ESP         0.0011
   2921 H           2.5570   -0.8240   -2.8547 H     1    ESP         0.0021
   2922 H           2.2354   -1.1456   -2.8547 H     1    ESP         0.0039
   2923 H           2.1177   -1.5849   -2.8547 H     1    ESP         0.0055
   2924 H           2.2354   -2.0242   -2.8547 H     1    ESP         0.0067
   2925 H           2.5570   -2.3457   -2.8547 H     1    ESP         0.0075
   2926 H           2.9963   -2.4634   -2.8547 H     1    ESP         0.0077
   2927 H           3.4356   -2.3457   -2.8547 H     1    ESP         0.0075
   2928 H           3.7571   -2.0242   -2.8547 H     1    ESP         0.0067
   2929 H           3.4454   -1.5849   -2.9943 H     1    ESP         0.0055
   2930 H           3.2208   -1.1960   -2.9943 H     1    ESP         0.0040
   2931 H           2.7717   -1.1960   -2.9943 H     1    ESP         0.0040
   2932 H           2.5472   -1.5849   -2.9943 H     1    ESP         0.0055
   2933 H           2.7717   -1.9738   -2.9943 H     1    ESP         0.0067
   2934 H           3.2208   -1.9738   -2.9943 H     1    ESP         0.0067
   2935 H           2.9963   -1.5849   -3.0415 H     1    ESP         0.0055
   2936 H           2.9963   -1.5849    3.0415 H     1    ESP         0.0055
   2937 H           3.4454   -1.5849    2.9943 H     1    ESP         0.0055
   2938 H           3.2208   -1.1960    2.9943 H     1    ESP         0.0040
   2939 H           2.7717   -1.1960    2.9943 H     1    ESP         0.0040
   2940 H           2.5472   -1.5849    2.9943 H     1    ESP         0.0055
   2941 H           2.7717   -1.9738    2.9943 H     1    ESP         0.0067
   2942 H           3.2208   -1.9738    2.9943 H     1    ESP         0.0067
   2943 H           3.8748   -1.5849    2.8547 H     1    ESP         0.0053
   2944 H           3.7571   -1.1456    2.8547 H     1    ESP         0.0035
   2945 H           3.4356   -0.8240    2.8547 H     1    ESP         0.0017
   2946 H           2.9963   -0.7063    2.8547 H     1    ESP         0.0011
   2947 H           2.5570   -0.8240    2.8547 H     1    ESP         0.0021
   2948 H           2.2354   -1.1456    2.8547 H     1    ESP         0.0039
   2949 H           2.1177   -1.5849    2.8547 H     1    ESP         0.0055
   2950 H           2.2354   -2.0242    2.8547 H     1    ESP         0.0067
   2951 H           2.5570   -2.3457    2.8547 H     1    ESP         0.0075
   2952 H           2.9963   -2.4634    2.8547 H     1    ESP         0.0077
   2953 H           3.4356   -2.3457    2.8547 H     1    ESP         0.0075
   2954 H           3.7571   -2.0242    2.8547 H     1    ESP         0.0067
   2955 H           4.2659   -1.5849    2.6290 H     1    ESP         0.0050
   2956 H           4.1802   -1.1262    2.6290 H     1    ESP         0.0029
   2957 H           3.9345   -0.7296    2.6290 H     1    ESP         0.0006
   2958 H           3.5622   -0.4484    2.6290 H     1    ESP        -0.0016
   2959 H           3.1134   -0.3207    2.6290 H     1    ESP        -0.0026
   2960 H           2.6488   -0.3637    2.6290 H     1    ESP        -0.0017
   2961 H           2.2312   -0.5717    2.6290 H     1    ESP         0.0008
   2962 H           1.9168   -0.9165    2.6290 H     1    ESP         0.0033
   2963 H           1.7483   -1.3516    2.6290 H     1    ESP         0.0050
   2964 H           1.7483   -1.8182    2.6290 H     1    ESP         0.0064
   2965 H           1.9168   -2.2533    2.6290 H     1    ESP         0.0074
   2966 H           2.2312   -2.5981    2.6290 H     1    ESP         0.0081
   2967 H           2.6488   -2.8060    2.6290 H     1    ESP         0.0083
   2968 H           3.1134   -2.8491    2.6290 H     1    ESP         0.0083
   2969 H           3.5622   -2.7214    2.6290 H     1    ESP         0.0080
   2970 H           3.9345   -2.4402    2.6290 H     1    ESP         0.0075
   2971 H           4.1802   -2.0435    2.6290 H     1    ESP         0.0065
   2972 H           4.6015   -1.5849    2.3268 H     1    ESP         0.0044
   2973 H           4.5365   -1.1327    2.3268 H     1    ESP         0.0023
   2974 H           4.3467   -0.7171    2.3268 H     1    ESP        -0.0003
   2975 H           4.0475   -0.3718    2.3268 H     1    ESP        -0.0034
   2976 H           3.6631   -0.1248    2.3268 H     1    ESP        -0.0063
   2977 H           3.2247    0.0040    2.3268 H     1    ESP        -0.0081
   2978 H           2.3295   -3.0450    2.3268 H     1    ESP         0.0090
   2979 H           2.7678   -3.1737    2.3268 H     1    ESP         0.0088
   2980 H           3.2247   -3.1737    2.3268 H     1    ESP         0.0086
   2981 H           3.6631   -3.0450    2.3268 H     1    ESP         0.0083
   2982 H           4.0475   -2.7980    2.3268 H     1    ESP         0.0078
   2983 H           4.3467   -2.4527    2.3268 H     1    ESP         0.0071
   2984 H           4.5365   -2.0371    2.3268 H     1    ESP         0.0060
   2985 H           4.8669   -1.5849    1.9615 H     1    ESP         0.0037
   2986 H           4.8081   -1.1197    1.9615 H     1    ESP         0.0013
   2987 H           4.6355   -0.6837    1.9615 H     1    ESP        -0.0017
   2988 H           4.3599   -0.3044    1.9615 H     1    ESP        -0.0055
   2989 H           3.9986   -0.0055    1.9615 H     1    ESP        -0.0100
   2990 H           2.6458   -3.4224    1.9615 H     1    ESP         0.0094
   2991 H           3.1137   -3.4518    1.9615 H     1    ESP         0.0088
   2992 H           3.5743   -3.3639    1.9615 H     1    ESP         0.0084
   2993 H           3.9986   -3.1643    1.9615 H     1    ESP         0.0080
   2994 H           4.3599   -2.8654    1.9615 H     1    ESP         0.0074
   2995 H           4.6355   -2.4861    1.9615 H     1    ESP         0.0066
   2996 H           4.8081   -2.0501    1.9615 H     1    ESP         0.0054
   2997 H           5.0506   -1.5849    1.5490 H     1    ESP         0.0027
   2998 H           4.9991   -1.1278    1.5490 H     1    ESP         0.0003
   2999 H           4.8471   -0.6936    1.5490 H     1    ESP        -0.0030
   3000 H           4.6024   -0.3041    1.5490 H     1    ESP        -0.0073
   3001 H           4.2771    0.0212    1.5490 H     1    ESP        -0.0129
   3002 H           3.4534   -3.5877    1.5490 H     1    ESP         0.0085
   3003 H           3.8876   -3.4357    1.5490 H     1    ESP         0.0079
   3004 H           4.2771   -3.1910    1.5490 H     1    ESP         0.0074
   3005 H           4.6024   -2.8657    1.5490 H     1    ESP         0.0067
   3006 H           4.8471   -2.4762    1.5490 H     1    ESP         0.0058
   3007 H           4.9991   -2.0420    1.5490 H     1    ESP         0.0045
   3008 H           5.1445   -1.5849    1.1073 H     1    ESP         0.0018
   3009 H           5.0942   -1.1231    1.1073 H     1    ESP        -0.0009
   3010 H           4.9459   -0.6829    1.1073 H     1    ESP        -0.0046
   3011 H           4.7064   -0.2849    1.1073 H     1    ESP        -0.0097
   3012 H           4.3870    0.0524    1.1073 H     1    ESP        -0.0170
   3013 H           4.0025   -3.4828    1.1073 H     1    ESP         0.0075
   3014 H           4.3870   -3.2221    1.1073 H     1    ESP         0.0068
   3015 H           4.7064   -2.8849    1.1073 H     1    ESP         0.0061
   3016 H           4.9459   -2.4869    1.1073 H     1    ESP         0.0051
   3017 H           5.0942   -2.0467    1.1073 H     1    ESP         0.0037
   3018 H           5.1445   -1.5849    0.6557 H     1    ESP         0.0009
   3019 H           5.0942   -1.1231    0.6557 H     1    ESP        -0.0020
   3020 H           4.9459   -0.6829    0.6557 H     1    ESP        -0.0062
   3021 H           4.7064   -0.2849    0.6557 H     1    ESP        -0.0122
   3022 H           4.3870   -3.2221    0.6557 H     1    ESP         0.0064
   3023 H           4.7064   -2.8849    0.6557 H     1    ESP         0.0055
   3024 H           4.9459   -2.4869    0.6557 H     1    ESP         0.0044
   3025 H           5.0942   -2.0467    0.6557 H     1    ESP         0.0030
   3026 H           5.0506   -1.5849    0.2140 H     1    ESP         0.0004
   3027 H           4.9991   -2.0420    0.2140 H     1    ESP         0.0027
   3028 H          -0.7265    1.2774    3.5000 H     1    ESP        -0.0077
   3029 H          -0.2697    1.2774    3.4701 H     1    ESP        -0.0086
   3030 H          -0.4981    1.6730    3.4701 H     1    ESP        -0.0085
   3031 H          -0.9549    1.6730    3.4701 H     1    ESP        -0.0074
   3032 H          -1.1833    1.2774    3.4701 H     1    ESP        -0.0068
   3033 H          -0.9549    0.8818    3.4701 H     1    ESP        -0.0071
   3034 H          -0.4981    0.8818    3.4701 H     1    ESP        -0.0078
   3035 H           0.1794    1.2774    3.3807 H     1    ESP        -0.0096
   3036 H           0.0580    1.7303    3.3807 H     1    ESP        -0.0100
   3037 H          -0.2736    2.0619    3.3807 H     1    ESP        -0.0093
   3038 H          -0.7265    2.1833    3.3807 H     1    ESP        -0.0081
   3039 H          -1.1794    2.0619    3.3807 H     1    ESP        -0.0068
   3040 H          -1.5110    1.7303    3.3807 H     1    ESP        -0.0060
   3041 H          -1.6324    1.2774    3.3807 H     1    ESP        -0.0058
   3042 H          -1.5110    0.8245    3.3807 H     1    ESP        -0.0062
   3043 H          -1.1794    0.4929    3.3807 H     1    ESP        -0.0066
   3044 H          -0.7265    0.3715    3.3807 H     1    ESP        -0.0070
   3045 H          -0.2736    0.4929    3.3807 H     1    ESP        -0.0076
   3046 H           0.0580    0.8245    3.3807 H     1    ESP        -0.0086
   3047 H           0.6129    1.2774    3.2336 H     1    ESP        -0.0107
   3048 H           0.5321    1.7355    3.2336 H     1    ESP        -0.0115
   3049 H           0.2995    2.1383    3.2336 H     1    ESP        -0.0112
   3050 H          -0.0568    2.4373    3.2336 H     1    ESP        -0.0102
   3051 H          -0.4939    2.5964    3.2336 H     1    ESP        -0.0089
   3052 H          -0.9591    2.5964    3.2336 H     1    ESP        -0.0074
   3053 H          -1.3962    2.4373    3.2336 H     1    ESP        -0.0060
   3054 H          -1.7525    2.1383    3.2336 H     1    ESP        -0.0049
   3055 H          -1.9851    1.7355    3.2336 H     1    ESP        -0.0045
   3056 H          -2.0659    1.2774    3.2336 H     1    ESP        -0.0047
   3057 H          -1.9851    0.8193    3.2336 H     1    ESP        -0.0053
   3058 H          -1.7525    0.4164    3.2336 H     1    ESP        -0.0060
   3059 H          -1.3962    0.1174    3.2336 H     1    ESP        -0.0064
   3060 H          -0.9591   -0.0417    3.2336 H     1    ESP        -0.0066
   3061 H          -0.4939   -0.0417    3.2336 H     1    ESP        -0.0068
   3062 H          -0.0568    0.1174    3.2336 H     1    ESP        -0.0072
   3063 H           0.2995    0.4164    3.2336 H     1    ESP        -0.0080
   3064 H           0.5321    0.8193    3.2336 H     1    ESP        -0.0093
   3065 H           1.0235    1.2774    3.0311 H     1    ESP        -0.0123
   3066 H           0.9639    1.7303    3.0311 H     1    ESP        -0.0134
   3067 H           0.7891    2.1524    3.0311 H     1    ESP        -0.0133
   3068 H           0.5109    2.5148    3.0311 H     1    ESP        -0.0125
   3069 H           0.1485    2.7929    3.0311 H     1    ESP        -0.0112
   3070 H          -0.2736    2.9678    3.0311 H     1    ESP        -0.0096
   3071 H          -0.7265    3.0274    3.0311 H     1    ESP        -0.0080
   3072 H          -1.1794    2.9678    3.0311 H     1    ESP        -0.0064
   3073 H          -1.6015    2.7929    3.0311 H     1    ESP        -0.0049
   3074 H          -1.9639    2.5148    3.0311 H     1    ESP        -0.0037
   3075 H          -2.2420    2.1524    3.0311 H     1    ESP        -0.0029
   3076 H          -2.4169    1.7303    3.0311 H     1    ESP        -0.0028
   3077 H          -2.4765    1.2774    3.0311 H     1    ESP        -0.0033
   3078 H          -2.4169    0.8245    3.0311 H     1    ESP        -0.0043
   3079 H          -2.2420    0.4024    3.0311 H     1    ESP        -0.0054
   3080 H          -1.9639    0.0400    3.0311 H     1    ESP        -0.0062
   3081 H          -1.6015   -0.2382    3.0311 H     1    ESP        -0.0065
   3082 H          -1.1794   -0.4130    3.0311 H     1    ESP        -0.0065
   3083 H          -0.7265   -0.4726    3.0311 H     1    ESP        -0.0065
   3084 H          -0.2736   -0.4130    3.0311 H     1    ESP        -0.0064
   3085 H           0.1485   -0.2382    3.0311 H     1    ESP        -0.0064
   3086 H           0.5109    0.0400    3.0311 H     1    ESP        -0.0069
   3087 H           0.7891    0.4024    3.0311 H     1    ESP        -0.0083
   3088 H           0.9639    0.8245    3.0311 H     1    ESP        -0.0104
   3089 H           1.4042    1.2774    2.7767 H     1    ESP        -0.0148
   3090 H           1.3544    1.7354    2.7767 H     1    ESP        -0.0162
   3091 H           1.2072    2.1720    2.7767 H     1    ESP        -0.0161
   3092 H           0.9697    2.5668    2.7767 H     1    ESP        -0.0151
   3093 H           0.6529    2.9013    2.7767 H     1    ESP        -0.0136
   3094 H           0.2715    3.1599    2.7767 H     1    ESP        -0.0118
   3095 H          -0.1565    3.3304    2.7767 H     1    ESP        -0.0100
   3096 H          -0.6111    3.4049    2.7767 H     1    ESP        -0.0083
   3097 H          -1.0712    3.3800    2.7767 H     1    ESP        -0.0065
   3098 H          -1.5151    3.2567    2.7767 H     1    ESP        -0.0047
   3099 H          -1.9222    3.0409    2.7767 H     1    ESP        -0.0032
   3100 H          -2.2733    2.7427    2.7767 H     1    ESP        -0.0018
   3101 H          -2.5522    2.3759    2.7767 H     1    ESP        -0.0009
   3102 H          -2.7456    1.9577    2.7767 H     1    ESP        -0.0006
   3103 H          -2.8447    1.5078    2.7767 H     1    ESP        -0.0010
   3104 H           1.5813    2.1714    2.4749 H     1    ESP        -0.0202
   3105 H           1.3777    2.5802    2.4749 H     1    ESP        -0.0186
   3106 H           1.1025    2.9447    2.4749 H     1    ESP        -0.0166
   3107 H           0.7650    3.2524    2.4749 H     1    ESP        -0.0144
   3108 H           0.3767    3.4928    2.4749 H     1    ESP        -0.0124
   3109 H          -0.0492    3.6578    2.4749 H     1    ESP        -0.0104
   3110 H          -0.4981    3.7417    2.4749 H     1    ESP        -0.0085
   3111 H          -0.9548    3.7417    2.4749 H     1    ESP        -0.0066
   3112 H          -1.4038    3.6578    2.4749 H     1    ESP        -0.0047
   3113 H          -1.8296    3.4928    2.4749 H     1    ESP        -0.0029
   3114 H          -2.2179    3.2524    2.4749 H     1    ESP        -0.0012
   3115 H          -2.5554    2.9447    2.4749 H     1    ESP         0.0003
   3116 H          -2.8307    2.5802    2.4749 H     1    ESP         0.0014
   3117 H          -3.0342    2.1714    2.4749 H     1    ESP         0.0021
   3118 H           1.7156    2.5990    2.1307 H     1    ESP        -0.0234
   3119 H           1.4647    2.9829    2.1307 H     1    ESP        -0.0203
   3120 H           1.1541    3.3203    2.1307 H     1    ESP        -0.0174
   3121 H           0.7922    3.6020    2.1307 H     1    ESP        -0.0147
   3122 H           0.3889    3.8203    2.1307 H     1    ESP        -0.0124
   3123 H          -0.0448    3.9692    2.1307 H     1    ESP        -0.0102
   3124 H          -0.4972    4.0446    2.1307 H     1    ESP        -0.0082
   3125 H          -0.9558    4.0446    2.1307 H     1    ESP        -0.0062
   3126 H          -1.4081    3.9692    2.1307 H     1    ESP        -0.0042
   3127 H          -1.8419    3.8203    2.1307 H     1    ESP        -0.0023
   3128 H          -2.2452    3.6020    2.1307 H     1    ESP        -0.0003
   3129 H          -2.6071    3.3203    2.1307 H     1    ESP         0.0015
   3130 H          -2.9177    2.9829    2.1307 H     1    ESP         0.0032
   3131 H          -3.1686    2.5990    2.1307 H     1    ESP         0.0046
   3132 H           1.7779    2.9849    1.7500 H     1    ESP        -0.0252
   3133 H           1.4955    3.3391    1.7500 H     1    ESP        -0.0211
   3134 H           1.1634    3.6472    1.7500 H     1    ESP        -0.0176
   3135 H           0.7891    3.9024    1.7500 H     1    ESP        -0.0147
   3136 H           0.3809    4.0990    1.7500 H     1    ESP        -0.0122
   3137 H          -0.0520    4.2325    1.7500 H     1    ESP        -0.0100
   3138 H          -0.5000    4.3000    1.7500 H     1    ESP        -0.0079
   3139 H          -0.9530    4.3000    1.7500 H     1    ESP        -0.0058
   3140 H          -1.4010    4.2325    1.7500 H     1    ESP        -0.0038
   3141 H          -1.8339    4.0990    1.7500 H     1    ESP        -0.0017
   3142 H          -2.2420    3.9024    1.7500 H     1    ESP         0.0003
   3143 H          -2.6163    3.6472    1.7500 H     1    ESP         0.0024
   3144 H          -2.9484    3.3391    1.7500 H     1    ESP         0.0045
   3145 H          -3.2309    2.9849    1.7500 H     1    ESP         0.0065
   3146 H           1.7506    3.3559    1.3394 H     1    ESP        -0.0251
   3147 H           1.4372    3.6804    1.3394 H     1    ESP        -0.0205
   3148 H           1.0817    3.9582    1.3394 H     1    ESP        -0.0169
   3149 H           0.6910    4.1837    1.3394 H     1    ESP        -0.0140
   3150 H           0.2727    4.3527    1.3394 H     1    ESP        -0.0115
   3151 H          -0.1650    4.4618    1.3394 H     1    ESP        -0.0092
   3152 H          -0.6136    4.5090    1.3394 H     1    ESP        -0.0071
   3153 H          -1.0645    4.4933    1.3394 H     1    ESP        -0.0050
   3154 H          -1.5088    4.4149    1.3394 H     1    ESP        -0.0029
   3155 H          -1.9378    4.2755    1.3394 H     1    ESP        -0.0008
   3156 H          -2.3433    4.0778    1.3394 H     1    ESP         0.0014
   3157 H          -2.7173    3.8255    1.3394 H     1    ESP         0.0037
   3158 H          -3.0525    3.5236    1.3394 H     1    ESP         0.0061
   3159 H          -3.3425    3.1780    1.3394 H     1    ESP         0.0086
   3160 H           1.6238    3.7075    0.9059 H     1    ESP        -0.0231
   3161 H           1.2789    3.9991    0.9059 H     1    ESP        -0.0188
   3162 H           0.8982    4.2421    0.9059 H     1    ESP        -0.0154
   3163 H           0.4886    4.4322    0.9059 H     1    ESP        -0.0126
   3164 H           0.0572    4.5660    0.9059 H     1    ESP        -0.0102
   3165 H          -0.3881    4.6412    0.9059 H     1    ESP        -0.0079
   3166 H          -0.8395    4.6562    0.9059 H     1    ESP        -0.0058
   3167 H          -1.2888    4.6110    0.9059 H     1    ESP        -0.0036
   3168 H          -1.7281    4.5063    0.9059 H     1    ESP        -0.0015
   3169 H          -2.1496    4.3440    0.9059 H     1    ESP         0.0008
   3170 H          -2.5456    4.1270    0.9059 H     1    ESP         0.0031
   3171 H          -2.9092    3.8591    0.9059 H     1    ESP         0.0056
   3172 H          -3.2338    3.5451    0.9059 H     1    ESP         0.0083
   3173 H           1.7272    3.7311    0.4568 H     1    ESP        -0.0249
   3174 H           1.3859    4.0304    0.4568 H     1    ESP        -0.0200
   3175 H           1.0085    4.2826    0.4568 H     1    ESP        -0.0162
   3176 H           0.6014    4.4833    0.4568 H     1    ESP        -0.0132
   3177 H           0.1716    4.6292    0.4568 H     1    ESP        -0.0107
   3178 H          -0.2736    4.7178    0.4568 H     1    ESP        -0.0084
   3179 H          -0.7265    4.7474    0.4568 H     1    ESP        -0.0062
   3180 H          -1.1794    4.7178    0.4568 H     1    ESP        -0.0040
   3181 H          -1.6246    4.6292    0.4568 H     1    ESP        -0.0018
   3182 H          -2.0544    4.4833    0.4568 H     1    ESP         0.0005
   3183 H          -2.4615    4.2826    0.4568 H     1    ESP         0.0029
   3184 H          -2.8389    4.0304    0.4568 H     1    ESP         0.0054
   3185 H          -3.1802    3.7311    0.4568 H     1    ESP         0.0082
   3186 H          -3.4795    3.3898    0.4568 H     1    ESP         0.0115
   3187 H           1.7877    3.7123    0.0000 H     1    ESP        -0.0260
   3188 H           1.4557    4.0138    0.0000 H     1    ESP        -0.0208
   3189 H           1.0879    4.2704    0.0000 H     1    ESP        -0.0169
   3190 H           0.6902    4.4778    0.0000 H     1    ESP        -0.0138
   3191 H           0.2694    4.6327    0.0000 H     1    ESP        -0.0112
   3192 H          -0.1679    4.7325    0.0000 H     1    ESP        -0.0089
   3193 H          -0.6143    4.7756    0.0000 H     1    ESP        -0.0067
   3194 H          -1.0626    4.7612    0.0000 H     1    ESP        -0.0045
   3195 H          -1.5053    4.6896    0.0000 H     1    ESP        -0.0023
   3196 H          -1.9353    4.5620    0.0000 H     1    ESP        -0.0001
   3197 H          -2.3454    4.3805    0.0000 H     1    ESP         0.0022
   3198 H          -2.7289    4.1480    0.0000 H     1    ESP         0.0047
   3199 H          -3.0795    3.8684    0.0000 H     1    ESP         0.0075
   3200 H          -3.3916    3.5462    0.0000 H     1    ESP         0.0106
   3201 H           1.7272    3.7311   -0.4568 H     1    ESP        -0.0249
   3202 H           1.3859    4.0304   -0.4568 H     1    ESP        -0.0200
   3203 H           1.0085    4.2826   -0.4568 H     1    ESP        -0.0162
   3204 H           0.6014    4.4833   -0.4568 H     1    ESP        -0.0132
   3205 H           0.1716    4.6292   -0.4568 H     1    ESP        -0.0107
   3206 H          -0.2736    4.7178   -0.4568 H     1    ESP        -0.0084
   3207 H          -0.7265    4.7474   -0.4568 H     1    ESP        -0.0062
   3208 H          -1.1794    4.7178   -0.4568 H     1    ESP        -0.0040
   3209 H          -1.6246    4.6292   -0.4568 H     1    ESP        -0.0018
   3210 H          -2.0544    4.4833   -0.4568 H     1    ESP         0.0005
   3211 H          -2.4615    4.2826   -0.4568 H     1    ESP         0.0029
   3212 H          -2.8389    4.0304   -0.4568 H     1    ESP         0.0054
   3213 H          -3.1802    3.7311   -0.4568 H     1    ESP         0.0082
   3214 H          -3.4795    3.3898   -0.4568 H     1    ESP         0.0115
   3215 H           1.6238    3.7075   -0.9059 H     1    ESP        -0.0231
   3216 H           1.2789    3.9991   -0.9059 H     1    ESP        -0.0188
   3217 H           0.8982    4.2421   -0.9059 H     1    ESP        -0.0154
   3218 H           0.4886    4.4322   -0.9059 H     1    ESP        -0.0126
   3219 H           0.0572    4.5660   -0.9059 H     1    ESP        -0.0102
   3220 H          -0.3881    4.6412   -0.9059 H     1    ESP        -0.0079
   3221 H          -0.8395    4.6562   -0.9059 H     1    ESP        -0.0058
   3222 H          -1.2888    4.6110   -0.9059 H     1    ESP        -0.0036
   3223 H          -1.7281    4.5063   -0.9059 H     1    ESP        -0.0015
   3224 H          -2.1496    4.3440   -0.9059 H     1    ESP         0.0008
   3225 H          -2.5456    4.1270   -0.9059 H     1    ESP         0.0031
   3226 H          -2.9092    3.8591   -0.9059 H     1    ESP         0.0056
   3227 H          -3.2338    3.5451   -0.9059 H     1    ESP         0.0083
   3228 H           1.7506    3.3559   -1.3394 H     1    ESP        -0.0251
   3229 H           1.4372    3.6804   -1.3394 H     1    ESP        -0.0205
   3230 H           1.0817    3.9582   -1.3394 H     1    ESP        -0.0169
   3231 H           0.6910    4.1837   -1.3394 H     1    ESP        -0.0140
   3232 H           0.2727    4.3527   -1.3394 H     1    ESP        -0.0115
   3233 H          -0.1650    4.4618   -1.3394 H     1    ESP        -0.0092
   3234 H          -0.6136    4.5090   -1.3394 H     1    ESP        -0.0071
   3235 H          -1.0645    4.4933   -1.3394 H     1    ESP        -0.0050
   3236 H          -1.5088    4.4149   -1.3394 H     1    ESP        -0.0029
   3237 H          -1.9378    4.2755   -1.3394 H     1    ESP        -0.0008
   3238 H          -2.3433    4.0778   -1.3394 H     1    ESP         0.0014
   3239 H          -2.7173    3.8255   -1.3394 H     1    ESP         0.0037
   3240 H          -3.0525    3.5236   -1.3394 H     1    ESP         0.0061
   3241 H          -3.3425    3.1780   -1.3394 H     1    ESP         0.0086
   3242 H           1.7779    2.9849   -1.7500 H     1    ESP        -0.0252
   3243 H           1.4955    3.3391   -1.7500 H     1    ESP        -0.0211
   3244 H           1.1634    3.6472   -1.7500 H     1    ESP        -0.0176
   3245 H           0.7891    3.9024   -1.7500 H     1    ESP        -0.0147
   3246 H           0.3809    4.0990   -1.7500 H     1    ESP        -0.0122
   3247 H          -0.0520    4.2325   -1.7500 H     1    ESP        -0.0100
   3248 H          -0.5000    4.3000   -1.7500 H     1    ESP        -0.0079
   3249 H          -0.9530    4.3000   -1.7500 H     1    ESP        -0.0058
   3250 H          -1.4010    4.2325   -1.7500 H     1    ESP        -0.0038
   3251 H          -1.8339    4.0990   -1.7500 H     1    ESP        -0.0017
   3252 H          -2.2420    3.9024   -1.7500 H     1    ESP         0.0003
   3253 H          -2.6163    3.6472   -1.7500 H     1    ESP         0.0024
   3254 H          -2.9484    3.3391   -1.7500 H     1    ESP         0.0045
   3255 H          -3.2309    2.9849   -1.7500 H     1    ESP         0.0065
   3256 H           1.7156    2.5990   -2.1307 H     1    ESP        -0.0234
   3257 H           1.4647    2.9829   -2.1307 H     1    ESP        -0.0203
   3258 H           1.1541    3.3203   -2.1307 H     1    ESP        -0.0174
   3259 H           0.7922    3.6020   -2.1307 H     1    ESP        -0.0147
   3260 H           0.3889    3.8203   -2.1307 H     1    ESP        -0.0124
   3261 H          -0.0448    3.9692   -2.1307 H     1    ESP        -0.0102
   3262 H          -0.4972    4.0446   -2.1307 H     1    ESP        -0.0082
   3263 H          -0.9558    4.0446   -2.1307 H     1    ESP        -0.0062
   3264 H          -1.4081    3.9692   -2.1307 H     1    ESP        -0.0042
   3265 H          -1.8419    3.8203   -2.1307 H     1    ESP        -0.0023
   3266 H          -2.2452    3.6020   -2.1307 H     1    ESP        -0.0003
   3267 H          -2.6071    3.3203   -2.1307 H     1    ESP         0.0015
   3268 H          -2.9177    2.9829   -2.1307 H     1    ESP         0.0032
   3269 H          -3.1686    2.5990   -2.1307 H     1    ESP         0.0046
   3270 H           1.5813    2.1714   -2.4749 H     1    ESP        -0.0202
   3271 H           1.3777    2.5802   -2.4749 H     1    ESP        -0.0186
   3272 H           1.1025    2.9447   -2.4749 H     1    ESP        -0.0166
   3273 H           0.7650    3.2524   -2.4749 H     1    ESP        -0.0144
   3274 H           0.3767    3.4928   -2.4749 H     1    ESP        -0.0124
   3275 H          -0.0492    3.6578   -2.4749 H     1    ESP        -0.0104
   3276 H          -0.4981    3.7417   -2.4749 H     1    ESP        -0.0085
   3277 H          -0.9548    3.7417   -2.4749 H     1    ESP        -0.0066
   3278 H          -1.4038    3.6578   -2.4749 H     1    ESP        -0.0047
   3279 H          -1.8296    3.4928   -2.4749 H     1    ESP        -0.0029
   3280 H          -2.2179    3.2524   -2.4749 H     1    ESP        -0.0012
   3281 H          -2.5554    2.9447   -2.4749 H     1    ESP         0.0003
   3282 H          -2.8307    2.5802   -2.4749 H     1    ESP         0.0014
   3283 H          -3.0342    2.1714   -2.4749 H     1    ESP         0.0021
   3284 H           1.4042    1.2774   -2.7767 H     1    ESP        -0.0148
   3285 H           1.3544    1.7354   -2.7767 H     1    ESP        -0.0162
   3286 H           1.2072    2.1720   -2.7767 H     1    ESP        -0.0161
   3287 H           0.9697    2.5668   -2.7767 H     1    ESP        -0.0151
   3288 H           0.6529    2.9013   -2.7767 H     1    ESP        -0.0136
   3289 H           0.2715    3.1599   -2.7767 H     1    ESP        -0.0118
   3290 H          -0.1565    3.3304   -2.7767 H     1    ESP        -0.0100
   3291 H          -0.6111    3.4049   -2.7767 H     1    ESP        -0.0083
   3292 H          -1.0712    3.3800   -2.7767 H     1    ESP        -0.0065
   3293 H          -1.5151    3.2567   -2.7767 H     1    ESP        -0.0047
   3294 H          -1.9222    3.0409   -2.7767 H     1    ESP        -0.0032
   3295 H          -2.2733    2.7427   -2.7767 H     1    ESP        -0.0018
   3296 H          -2.5522    2.3759   -2.7767 H     1    ESP        -0.0009
   3297 H          -2.7456    1.9577   -2.7767 H     1    ESP        -0.0006
   3298 H          -2.8447    1.5078   -2.7767 H     1    ESP        -0.0010
   3299 H           1.0235    1.2774   -3.0311 H     1    ESP        -0.0123
   3300 H           0.9639    1.7303   -3.0311 H     1    ESP        -0.0134
   3301 H           0.7891    2.1524   -3.0311 H     1    ESP        -0.0133
   3302 H           0.5109    2.5148   -3.0311 H     1    ESP        -0.0125
   3303 H           0.1485    2.7929   -3.0311 H     1    ESP        -0.0112
   3304 H          -0.2736    2.9678   -3.0311 H     1    ESP        -0.0096
   3305 H          -0.7265    3.0274   -3.0311 H     1    ESP        -0.0080
   3306 H          -1.1794    2.9678   -3.0311 H     1    ESP        -0.0064
   3307 H          -1.6015    2.7929   -3.0311 H     1    ESP        -0.0049
   3308 H          -1.9639    2.5148   -3.0311 H     1    ESP        -0.0037
   3309 H          -2.2420    2.1524   -3.0311 H     1    ESP        -0.0029
   3310 H          -2.4169    1.7303   -3.0311 H     1    ESP        -0.0028
   3311 H          -2.4765    1.2774   -3.0311 H     1    ESP        -0.0033
   3312 H          -2.4169    0.8245   -3.0311 H     1    ESP        -0.0043
   3313 H          -2.2420    0.4024   -3.0311 H     1    ESP        -0.0054
   3314 H          -1.9639    0.0400   -3.0311 H     1    ESP        -0.0062
   3315 H          -1.6015   -0.2382   -3.0311 H     1    ESP        -0.0065
   3316 H          -1.1794   -0.4130   -3.0311 H     1    ESP        -0.0065
   3317 H          -0.7265   -0.4726   -3.0311 H     1    ESP        -0.0065
   3318 H          -0.2736   -0.4130   -3.0311 H     1    ESP        -0.0064
   3319 H           0.1485   -0.2382   -3.0311 H     1    ESP        -0.0064
   3320 H           0.5109    0.0400   -3.0311 H     1    ESP        -0.0069
   3321 H           0.7891    0.4024   -3.0311 H     1    ESP        -0.0083
   3322 H           0.9639    0.8245   -3.0311 H     1    ESP        -0.0104
   3323 H           0.6129    1.2774   -3.2336 H     1    ESP        -0.0107
   3324 H           0.5321    1.7355   -3.2336 H     1    ESP        -0.0115
   3325 H           0.2995    2.1383   -3.2336 H     1    ESP        -0.0112
   3326 H          -0.0568    2.4373   -3.2336 H     1    ESP        -0.0102
   3327 H          -0.4939    2.5964   -3.2336 H     1    ESP        -0.0089
   3328 H          -0.9591    2.5964   -3.2336 H     1    ESP        -0.0074
   3329 H          -1.3962    2.4373   -3.2336 H     1    ESP        -0.0060
   3330 H          -1.7525    2.1383   -3.2336 H     1    ESP        -0.0049
   3331 H          -1.9851    1.7355   -3.2336 H     1    ESP        -0.0045
   3332 H          -2.0659    1.2774   -3.2336 H     1    ESP        -0.0047
   3333 H          -1.9851    0.8193   -3.2336 H     1    ESP        -0.0053
   3334 H          -1.7525    0.4164   -3.2336 H     1    ESP        -0.0060
   3335 H          -1.3962    0.1174   -3.2336 H     1    ESP        -0.0064
   3336 H          -0.9591   -0.0417   -3.2336 H     1    ESP        -0.0066
   3337 H          -0.4939   -0.0417   -3.2336 H     1    ESP        -0.0068
   3338 H          -0.0568    0.1174   -3.2336 H     1    ESP        -0.0072
   3339 H           0.2995    0.4164   -3.2336 H     1    ESP        -0.0080
   3340 H           0.5321    0.8193   -3.2336 H     1    ESP        -0.0093
   3341 H           0.1794    1.2774   -3.3807 H     1    ESP        -0.0096
   3342 H           0.0580    1.7303   -3.3807 H     1    ESP        -0.0100
   3343 H          -0.2736    2.0619   -3.3807 H     1    ESP        -0.0093
   3344 H          -0.7265    2.1833   -3.3807 H     1    ESP        -0.0081
   3345 H          -1.1794    2.0619   -3.3807 H     1    ESP        -0.0068
   3346 H          -1.5110    1.7303   -3.3807 H     1    ESP        -0.0060
   3347 H          -1.6324    1.2774   -3.3807 H     1    ESP        -0.0058
   3348 H          -1.5110    0.8245   -3.3807 H     1    ESP        -0.0062
   3349 H          -1.1794    0.4929   -3.3807 H     1    ESP        -0.0066
   3350 H          -0.7265    0.3715   -3.3807 H     1    ESP        -0.0070
   3351 H          -0.2736    0.4929   -3.3807 H     1    ESP        -0.0076
   3352 H           0.0580    0.8245   -3.3807 H     1    ESP        -0.0086
   3353 H          -0.2697    1.2774   -3.4701 H     1    ESP        -0.0086
   3354 H          -0.4981    1.6730   -3.4701 H     1    ESP        -0.0085
   3355 H          -0.9549    1.6730   -3.4701 H     1    ESP        -0.0074
   3356 H          -1.1833    1.2774   -3.4701 H     1    ESP        -0.0068
   3357 H          -0.9549    0.8818   -3.4701 H     1    ESP        -0.0071
   3358 H          -0.4981    0.8818   -3.4701 H     1    ESP        -0.0078
   3359 H          -0.7265    1.2774   -3.5000 H     1    ESP        -0.0077
   3360 H          -2.7015    0.4737    2.9665 H     1    ESP        -0.0036
   3361 H          -2.4779    0.0865    2.9665 H     1    ESP        -0.0049
   3362 H          -3.0202    0.9158    2.8667 H     1    ESP        -0.0015
   3363 H          -3.1386    0.4737    2.8667 H     1    ESP        -0.0016
   3364 H          -3.0202    0.0316    2.8667 H     1    ESP        -0.0026
   3365 H          -3.2515    1.3104    2.7029 H     1    ESP         0.0008
   3366 H          -3.4775    0.9189    2.7029 H     1    ESP         0.0011
   3367 H          -3.5560    0.4737    2.7029 H     1    ESP         0.0008
   3368 H          -3.4775    0.0285    2.7029 H     1    ESP        -0.0001
   3369 H          -3.2289    1.8543    2.4787 H     1    ESP         0.0025
   3370 H          -3.5653    1.5402    2.4787 H     1    ESP         0.0036
   3371 H          -3.8044    1.1470    2.4787 H     1    ESP         0.0039
   3372 H          -3.9286    0.7038    2.4787 H     1    ESP         0.0037
   3373 H          -3.9286    0.2436    2.4787 H     1    ESP         0.0031
   3374 H          -3.8044   -0.1996    2.4787 H     1    ESP         0.0021
   3375 H          -3.5266    2.0690    2.1992 H     1    ESP         0.0057
   3376 H          -3.8497    1.7459    2.1992 H     1    ESP         0.0066
   3377 H          -4.0928    1.3590    2.1992 H     1    ESP         0.0070
   3378 H          -4.2437    0.9278    2.1992 H     1    ESP         0.0068
   3379 H          -4.2949    0.4737    2.1992 H     1    ESP         0.0062
   3380 H          -4.2437    0.0196    2.1992 H     1    ESP         0.0055
   3381 H          -4.5999    0.4737    1.8705 H     1    ESP         0.0091
   3382 H          -4.5548    0.0161    1.8705 H     1    ESP         0.0084
   3383 H          -4.8130    0.0225    1.5000 H     1    ESP         0.0111
   3384 H          -4.6958   -0.4149    1.5000 H     1    ESP         0.0107
   3385 H          -4.9658   -0.1946    1.0960 H     1    ESP         0.0133
   3386 H          -5.0360   -0.4301    0.6676 H     1    ESP         0.0151
   3387 H          -5.0360   -0.4301   -0.6676 H     1    ESP         0.0151
   3388 H          -4.9658   -0.1946   -1.0960 H     1    ESP         0.0133
   3389 H          -4.8130    0.0225   -1.5000 H     1    ESP         0.0111
   3390 H          -4.6958   -0.4149   -1.5000 H     1    ESP         0.0107
   3391 H          -4.5999    0.4737   -1.8705 H     1    ESP         0.0091
   3392 H          -4.5548    0.0161   -1.8705 H     1    ESP         0.0084
   3393 H          -3.5266    2.0690   -2.1992 H     1    ESP         0.0057
   3394 H          -3.8497    1.7459   -2.1992 H     1    ESP         0.0066
   3395 H          -4.0928    1.3590   -2.1992 H     1    ESP         0.0070
   3396 H          -4.2437    0.9278   -2.1992 H     1    ESP         0.0068
   3397 H          -4.2949    0.4737   -2.1992 H     1    ESP         0.0062
   3398 H          -4.2437    0.0196   -2.1992 H     1    ESP         0.0055
   3399 H          -3.2289    1.8543   -2.4787 H     1    ESP         0.0025
   3400 H          -3.5653    1.5402   -2.4787 H     1    ESP         0.0036
   3401 H          -3.8044    1.1470   -2.4787 H     1    ESP         0.0039
   3402 H          -3.9286    0.7038   -2.4787 H     1    ESP         0.0037
   3403 H          -3.9286    0.2436   -2.4787 H     1    ESP         0.0031
   3404 H          -3.8044   -0.1996   -2.4787 H     1    ESP         0.0021
   3405 H          -3.2515    1.3104   -2.7029 H     1    ESP         0.0008
   3406 H          -3.4775    0.9189   -2.7029 H     1    ESP         0.0011
   3407 H          -3.5560    0.4737   -2.7029 H     1    ESP         0.0008
   3408 H          -3.4775    0.0285   -2.7029 H     1    ESP        -0.0001
   3409 H          -3.0202    0.9158   -2.8667 H     1    ESP        -0.0015
   3410 H          -3.1386    0.4737   -2.8667 H     1    ESP        -0.0016
   3411 H          -3.0202    0.0316   -2.8667 H     1    ESP        -0.0026
   3412 H          -2.7015    0.4737   -2.9665 H     1    ESP        -0.0036
   3413 H          -2.4779    0.0865   -2.9665 H     1    ESP        -0.0049
   3414 H          -2.1294   -0.8942    3.0000 H     1    ESP        -0.0041
   3415 H          -1.6822   -0.8942    2.9665 H     1    ESP        -0.0051
   3416 H          -1.9058   -0.5069    2.9665 H     1    ESP        -0.0058
   3417 H          -2.3529   -0.5069    2.9665 H     1    ESP        -0.0047
   3418 H          -2.5765   -0.8942    2.9665 H     1    ESP        -0.0028
   3419 H          -2.3529   -1.2814    2.9665 H     1    ESP        -0.0021
   3420 H          -1.9058   -1.2814    2.9665 H     1    ESP        -0.0032
   3421 H          -2.8952   -0.4520    2.8667 H     1    ESP        -0.0029
   3422 H          -3.0136   -0.8942    2.8667 H     1    ESP        -0.0012
   3423 H          -2.8952   -1.3363    2.8667 H     1    ESP        -0.0002
   3424 H          -2.5715   -1.6600    2.8667 H     1    ESP         0.0001
   3425 H          -2.1294   -1.7784    2.8667 H     1    ESP        -0.0005
   3426 H          -1.6872   -1.6600    2.8667 H     1    ESP        -0.0019
   3427 H          -3.3525   -0.4490    2.7029 H     1    ESP        -0.0006
   3428 H          -3.4310   -0.8942    2.7029 H     1    ESP         0.0008
   3429 H          -3.3525   -1.3393    2.7029 H     1    ESP         0.0018
   3430 H          -3.1265   -1.7308    2.7029 H     1    ESP         0.0023
   3431 H          -2.7802   -2.0214    2.7029 H     1    ESP         0.0024
   3432 H          -2.3554   -2.1760    2.7029 H     1    ESP         0.0020
   3433 H          -1.9033   -2.1760    2.7029 H     1    ESP         0.0012
   3434 H          -3.8036   -0.6640    2.4787 H     1    ESP         0.0025
   3435 H          -3.8036   -1.1243    2.4787 H     1    ESP         0.0036
   3436 H          -3.6794   -1.5674    2.4787 H     1    ESP         0.0043
   3437 H          -3.4403   -1.9607    2.4787 H     1    ESP         0.0048
   3438 H          -3.1039   -2.2748    2.4787 H     1    ESP         0.0050
   3439 H          -2.6953   -2.4865    2.4787 H     1    ESP         0.0048
   3440 H          -2.2447   -2.5802    2.4787 H     1    ESP         0.0043
   3441 H          -4.1187   -0.4401    2.1992 H     1    ESP         0.0048
   3442 H          -4.1699   -0.8942    2.1992 H     1    ESP         0.0056
   3443 H          -4.1187   -1.3482    2.1992 H     1    ESP         0.0064
   3444 H          -3.9678   -1.7795    2.1992 H     1    ESP         0.0071
   3445 H          -3.4016   -2.4895    2.1992 H     1    ESP         0.0076
   3446 H          -3.0147   -2.7326    2.1992 H     1    ESP         0.0075
   3447 H          -2.5834   -2.8835    2.1992 H     1    ESP         0.0072
   3448 H          -2.1294   -2.9347    2.1992 H     1    ESP         0.0069
   3449 H          -4.4298   -0.4366    1.8705 H     1    ESP         0.0078
   3450 H          -4.4749   -0.8942    1.8705 H     1    ESP         0.0083
   3451 H          -2.5870   -3.1946    1.8705 H     1    ESP         0.0099
   3452 H          -2.1294   -3.2397    1.8705 H     1    ESP         0.0098
   3453 H          -4.6880   -0.4430    1.5000 H     1    ESP         0.0107
   3454 H          -4.7274   -0.8942    1.5000 H     1    ESP         0.0109
   3455 H          -2.5805   -3.4528    1.5000 H     1    ESP         0.0124
   3456 H          -4.9129   -0.6694    1.0960 H     1    ESP         0.0131
   3457 H          -2.2418   -3.6845    1.0960 H     1    ESP         0.0150
   3458 H          -4.9129   -0.6694   -1.0960 H     1    ESP         0.0131
   3459 H          -2.2418   -3.6845   -1.0960 H     1    ESP         0.0150
   3460 H          -4.6880   -0.4430   -1.5000 H     1    ESP         0.0107
   3461 H          -4.7274   -0.8942   -1.5000 H     1    ESP         0.0109
   3462 H          -2.5805   -3.4528   -1.5000 H     1    ESP         0.0124
   3463 H          -4.4298   -0.4366   -1.8705 H     1    ESP         0.0078
   3464 H          -4.4749   -0.8942   -1.8705 H     1    ESP         0.0083
   3465 H          -2.5870   -3.1946   -1.8705 H     1    ESP         0.0099
   3466 H          -2.1294   -3.2397   -1.8705 H     1    ESP         0.0098
   3467 H          -4.1187   -0.4401   -2.1992 H     1    ESP         0.0048
   3468 H          -4.1699   -0.8942   -2.1992 H     1    ESP         0.0056
   3469 H          -4.1187   -1.3482   -2.1992 H     1    ESP         0.0064
   3470 H          -3.9678   -1.7795   -2.1992 H     1    ESP         0.0071
   3471 H          -3.4016   -2.4895   -2.1992 H     1    ESP         0.0076
   3472 H          -3.0147   -2.7326   -2.1992 H     1    ESP         0.0075
   3473 H          -2.5834   -2.8835   -2.1992 H     1    ESP         0.0072
   3474 H          -2.1294   -2.9347   -2.1992 H     1    ESP         0.0069
   3475 H          -3.8036   -0.6640   -2.4787 H     1    ESP         0.0025
   3476 H          -3.8036   -1.1243   -2.4787 H     1    ESP         0.0036
   3477 H          -3.6794   -1.5674   -2.4787 H     1    ESP         0.0043
   3478 H          -3.4403   -1.9607   -2.4787 H     1    ESP         0.0048
   3479 H          -3.1039   -2.2748   -2.4787 H     1    ESP         0.0050
   3480 H          -2.6953   -2.4865   -2.4787 H     1    ESP         0.0048
   3481 H          -2.2447   -2.5802   -2.4787 H     1    ESP         0.0043
   3482 H          -3.3525   -0.4490   -2.7029 H     1    ESP        -0.0006
   3483 H          -3.4310   -0.8942   -2.7029 H     1    ESP         0.0008
   3484 H          -3.3525   -1.3393   -2.7029 H     1    ESP         0.0018
   3485 H          -3.1265   -1.7308   -2.7029 H     1    ESP         0.0023
   3486 H          -2.7802   -2.0214   -2.7029 H     1    ESP         0.0024
   3487 H          -2.3554   -2.1760   -2.7029 H     1    ESP         0.0020
   3488 H          -1.9033   -2.1760   -2.7029 H     1    ESP         0.0012
   3489 H          -2.8952   -0.4520   -2.8667 H     1    ESP        -0.0029
   3490 H          -3.0136   -0.8942   -2.8667 H     1    ESP        -0.0012
   3491 H          -2.8952   -1.3363   -2.8667 H     1    ESP        -0.0002
   3492 H          -2.5715   -1.6600   -2.8667 H     1    ESP         0.0001
   3493 H          -2.1294   -1.7784   -2.8667 H     1    ESP        -0.0005
   3494 H          -1.6872   -1.6600   -2.8667 H     1    ESP        -0.0019
   3495 H          -1.6822   -0.8942   -2.9665 H     1    ESP        -0.0051
   3496 H          -1.9058   -0.5069   -2.9665 H     1    ESP        -0.0058
   3497 H          -2.3529   -0.5069   -2.9665 H     1    ESP        -0.0047
   3498 H          -2.5765   -0.8942   -2.9665 H     1    ESP        -0.0028
   3499 H          -2.3529   -1.2814   -2.9665 H     1    ESP        -0.0021
   3500 H          -1.9058   -1.2814   -2.9665 H     1    ESP        -0.0032
   3501 H          -2.1294   -0.8942   -3.0000 H     1    ESP        -0.0041
   3502 H          -0.7717   -1.3096    3.0000 H     1    ESP        -0.0035
   3503 H          -0.3246   -1.3096    2.9665 H     1    ESP        -0.0030
   3504 H          -0.5481   -0.9223    2.9665 H     1    ESP        -0.0051
   3505 H          -0.9953   -0.9223    2.9665 H     1    ESP        -0.0054
   3506 H          -1.2188   -1.3096    2.9665 H     1    ESP        -0.0037
   3507 H          -0.9953   -1.6968    2.9665 H     1    ESP        -0.0017
   3508 H          -0.5481   -1.6968    2.9665 H     1    ESP        -0.0013
   3509 H           0.1126   -1.3096    2.8667 H     1    ESP        -0.0022
   3510 H          -1.5375   -1.7517    2.8667 H     1    ESP        -0.0016
   3511 H          -1.2138   -2.0754    2.8667 H     1    ESP         0.0003
   3512 H          -0.7717   -2.1938    2.8667 H     1    ESP         0.0012
   3513 H          -0.3296   -2.0754    2.8667 H     1    ESP         0.0011
   3514 H          -0.0059   -1.7517    2.8667 H     1    ESP        -0.0000
   3515 H          -1.7688   -2.1462    2.7029 H     1    ESP         0.0008
   3516 H          -1.4225   -2.4368    2.7029 H     1    ESP         0.0025
   3517 H          -0.9977   -2.5914    2.7029 H     1    ESP         0.0035
   3518 H          -0.5457   -2.5914    2.7029 H     1    ESP         0.0040
   3519 H          -0.1209   -2.4368    2.7029 H     1    ESP         0.0039
   3520 H           0.2254   -2.1462    2.7029 H     1    ESP         0.0030
   3521 H           0.4515   -1.7548    2.7029 H     1    ESP         0.0015
   3522 H          -1.7463   -2.6902    2.4787 H     1    ESP         0.0044
   3523 H          -1.3376   -2.9019    2.4787 H     1    ESP         0.0056
   3524 H          -0.8870   -2.9956    2.4787 H     1    ESP         0.0065
   3525 H          -0.4279   -2.9642    2.4787 H     1    ESP         0.0069
   3526 H           0.0058   -2.8101    2.4787 H     1    ESP         0.0069
   3527 H           0.3818   -2.5446    2.4787 H     1    ESP         0.0063
   3528 H           0.6722   -2.1876    2.4787 H     1    ESP         0.0052
   3529 H          -1.6570   -3.1480    2.1992 H     1    ESP         0.0078
   3530 H          -1.2258   -3.2989    2.1992 H     1    ESP         0.0088
   3531 H          -0.7717   -3.3501    2.1992 H     1    ESP         0.0096
   3532 H          -0.3176   -3.2989    2.1992 H     1    ESP         0.0101
   3533 H           0.1136   -3.1480    2.1992 H     1    ESP         0.0102
   3534 H           0.5005   -2.9049    2.1992 H     1    ESP         0.0097
   3535 H          -2.0748   -3.2598    1.8705 H     1    ESP         0.0099
   3536 H          -1.6693   -3.4765    1.8705 H     1    ESP         0.0107
   3537 H          -2.0707   -3.5596    1.5000 H     1    ESP         0.0128
   3538 H          -2.1680   -3.7280    1.0960 H     1    ESP         0.0151
   3539 H          -2.1680   -3.7280   -1.0960 H     1    ESP         0.0151
   3540 H          -2.0707   -3.5596   -1.5000 H     1    ESP         0.0128
   3541 H          -2.0748   -3.2598   -1.8705 H     1    ESP         0.0099
   3542 H          -1.6693   -3.4765   -1.8705 H     1    ESP         0.0107
   3543 H          -1.6570   -3.1480   -2.1992 H     1    ESP         0.0078
   3544 H          -1.2258   -3.2989   -2.1992 H     1    ESP         0.0088
   3545 H          -0.7717   -3.3501   -2.1992 H     1    ESP         0.0096
   3546 H          -0.3176   -3.2989   -2.1992 H     1    ESP         0.0101
   3547 H           0.1136   -3.1480   -2.1992 H     1    ESP         0.0102
   3548 H           0.5005   -2.9049   -2.1992 H     1    ESP         0.0097
   3549 H          -1.7463   -2.6902   -2.4787 H     1    ESP         0.0044
   3550 H          -1.3376   -2.9019   -2.4787 H     1    ESP         0.0056
   3551 H          -0.8870   -2.9956   -2.4787 H     1    ESP         0.0065
   3552 H          -0.4279   -2.9642   -2.4787 H     1    ESP         0.0069
   3553 H           0.0058   -2.8101   -2.4787 H     1    ESP         0.0069
   3554 H           0.3818   -2.5446   -2.4787 H     1    ESP         0.0063
   3555 H           0.6722   -2.1876   -2.4787 H     1    ESP         0.0052
   3556 H          -1.7688   -2.1462   -2.7029 H     1    ESP         0.0008
   3557 H          -1.4225   -2.4368   -2.7029 H     1    ESP         0.0025
   3558 H          -0.9977   -2.5914   -2.7029 H     1    ESP         0.0035
   3559 H          -0.5457   -2.5914   -2.7029 H     1    ESP         0.0040
   3560 H          -0.1209   -2.4368   -2.7029 H     1    ESP         0.0039
   3561 H           0.2254   -2.1462   -2.7029 H     1    ESP         0.0030
   3562 H           0.4515   -1.7548   -2.7029 H     1    ESP         0.0015
   3563 H           0.1126   -1.3096   -2.8667 H     1    ESP        -0.0022
   3564 H          -1.5375   -1.7517   -2.8667 H     1    ESP        -0.0016
   3565 H          -1.2138   -2.0754   -2.8667 H     1    ESP         0.0003
   3566 H          -0.7717   -2.1938   -2.8667 H     1    ESP         0.0012
   3567 H          -0.3296   -2.0754   -2.8667 H     1    ESP         0.0011
   3568 H          -0.0059   -1.7517   -2.8667 H     1    ESP        -0.0000
   3569 H          -0.3246   -1.3096   -2.9665 H     1    ESP        -0.0030
   3570 H          -0.5481   -0.9223   -2.9665 H     1    ESP        -0.0051
   3571 H          -0.9953   -0.9223   -2.9665 H     1    ESP        -0.0054
   3572 H          -1.2188   -1.3096   -2.9665 H     1    ESP        -0.0037
   3573 H          -0.9953   -1.6968   -2.9665 H     1    ESP        -0.0017
   3574 H          -0.5481   -1.6968   -2.9665 H     1    ESP        -0.0013
   3575 H          -0.7717   -1.3096   -3.0000 H     1    ESP        -0.0035
   3576 H           0.5671   -0.2552    2.9665 H     1    ESP        -0.0056
   3577 H          -0.1036   -0.6424    2.9665 H     1    ESP        -0.0056
   3578 H           0.3436   -0.6424    2.9665 H     1    ESP        -0.0045
   3579 H           0.1200   -1.1395    2.8667 H     1    ESP        -0.0031
   3580 H           0.5621   -1.0210    2.8667 H     1    ESP        -0.0020
   3581 H           0.7708   -1.3825    2.7029 H     1    ESP         0.0009
   3582 H           0.7708   -1.3825   -2.7029 H     1    ESP         0.0009
   3583 H           0.1200   -1.1395   -2.8667 H     1    ESP        -0.0031
   3584 H           0.5621   -1.0210   -2.8667 H     1    ESP        -0.0020
   3585 H           0.5671   -0.2552   -2.9665 H     1    ESP        -0.0056
   3586 H          -0.1036   -0.6424   -2.9665 H     1    ESP        -0.0056
   3587 H           0.3436   -0.6424   -2.9665 H     1    ESP        -0.0045
   3588 H           1.5912   -0.2386    3.0000 H     1    ESP        -0.0036
   3589 H           2.0383   -0.2386    2.9665 H     1    ESP        -0.0034
   3590 H           1.8147    0.1487    2.9665 H     1    ESP        -0.0066
   3591 H           1.3676    0.1487    2.9665 H     1    ESP        -0.0066
   3592 H           1.1440   -0.2386    2.9665 H     1    ESP        -0.0043
   3593 H           1.3676   -0.6258    2.9665 H     1    ESP        -0.0014
   3594 H           1.8147   -0.6258    2.9665 H     1    ESP        -0.0006
   3595 H           2.4754   -0.2386    2.8667 H     1    ESP        -0.0034
   3596 H           2.3569    0.2036    2.8667 H     1    ESP        -0.0077
   3597 H           2.0333    0.5272    2.8667 H     1    ESP        -0.0103
   3598 H           1.5912    0.6457    2.8667 H     1    ESP        -0.0106
   3599 H           1.1490    0.5272    2.8667 H     1    ESP        -0.0094
   3600 H           1.1490   -1.0043    2.8667 H     1    ESP         0.0003
   3601 H           2.8143    0.2066    2.7029 H     1    ESP        -0.0088
   3602 H           0.9403   -1.3658    2.7029 H     1    ESP         0.0016
   3603 H           2.8143    0.2066   -2.7029 H     1    ESP        -0.0088
   3604 H           0.9403   -1.3658   -2.7029 H     1    ESP         0.0016
   3605 H           2.4754   -0.2386   -2.8667 H     1    ESP        -0.0034
   3606 H           2.3569    0.2036   -2.8667 H     1    ESP        -0.0077
   3607 H           2.0333    0.5272   -2.8667 H     1    ESP        -0.0103
   3608 H           1.5912    0.6457   -2.8667 H     1    ESP        -0.0106
   3609 H           1.1490    0.5272   -2.8667 H     1    ESP        -0.0094
   3610 H           1.1490   -1.0043   -2.8667 H     1    ESP         0.0003
   3611 H           2.0383   -0.2386   -2.9665 H     1    ESP        -0.0034
   3612 H           1.8147    0.1487   -2.9665 H     1    ESP        -0.0066
   3613 H           1.3676    0.1487   -2.9665 H     1    ESP        -0.0066
   3614 H           1.1440   -0.2386   -2.9665 H     1    ESP        -0.0043
   3615 H           1.3676   -0.6258   -2.9665 H     1    ESP        -0.0014
   3616 H           1.8147   -0.6258   -2.9665 H     1    ESP        -0.0006
   3617 H           1.5912   -0.2386   -3.0000 H     1    ESP        -0.0036
   3618 H           1.4630   -1.5599    2.8667 H     1    ESP         0.0036
   3619 H           1.5814   -2.0021    2.8667 H     1    ESP         0.0052
   3620 H           1.0456   -1.5599    2.7029 H     1    ESP         0.0029
   3621 H           1.1241   -2.0051    2.7029 H     1    ESP         0.0048
   3622 H           1.3501   -2.3966    2.7029 H     1    ESP         0.0064
   3623 H           1.6964   -2.6872    2.7029 H     1    ESP         0.0072
   3624 H           0.7972   -2.2332    2.4787 H     1    ESP         0.0058
   3625 H           1.0363   -2.6264    2.4787 H     1    ESP         0.0076
   3626 H           1.3727   -2.9406    2.4787 H     1    ESP         0.0083
   3627 H           1.7813   -3.1523    2.4787 H     1    ESP         0.0084
   3628 H           2.2319   -3.2459    2.4787 H     1    ESP         0.0082
   3629 H           0.7519   -2.8322    2.1992 H     1    ESP         0.0097
   3630 H           1.4619   -3.3984    2.1992 H     1    ESP         0.0101
   3631 H           1.8932   -3.5493    2.1992 H     1    ESP         0.0094
   3632 H           2.3472   -3.6004    2.1992 H     1    ESP         0.0088
   3633 H           2.3472   -3.9054    1.8705 H     1    ESP         0.0094
   3634 H           2.8048   -3.8603    1.8705 H     1    ESP         0.0086
   3635 H           2.7984   -4.1185    1.5000 H     1    ESP         0.0089
   3636 H           3.2358   -4.0013    1.5000 H     1    ESP         0.0080
   3637 H           3.1242   -4.2423    1.0960 H     1    ESP         0.0084
   3638 H           3.5444   -4.0829    1.0960 H     1    ESP         0.0075
   3639 H           3.9336   -3.8582    1.0960 H     1    ESP         0.0069
   3640 H           3.2511   -4.3416    0.6676 H     1    ESP         0.0082
   3641 H           3.6751   -4.1659    0.6676 H     1    ESP         0.0072
   3642 H           4.0664   -3.9261    0.6676 H     1    ESP         0.0064
   3643 H           4.4154   -3.6281    0.6676 H     1    ESP         0.0058
   3644 H           4.7134   -3.2791    0.6676 H     1    ESP         0.0053
   3645 H           5.3389   -1.5599    0.2242 H     1    ESP        -0.0005
   3646 H           5.3038   -1.1033    0.2242 H     1    ESP        -0.0032
   3647 H           5.1994   -0.6573    0.2242 H     1    ESP        -0.0070
   3648 H           5.0282   -0.2325    0.2242 H     1    ESP        -0.0122
   3649 H           3.3585   -4.3754    0.2242 H     1    ESP         0.0080
   3650 H           3.7764   -4.1881    0.2242 H     1    ESP         0.0069
   3651 H           4.1608   -3.9391    0.2242 H     1    ESP         0.0061
   3652 H           4.5028   -3.6344    0.2242 H     1    ESP         0.0055
   3653 H           4.7942   -3.2811    0.2242 H     1    ESP         0.0048
   3654 H           5.0282   -2.8874    0.2242 H     1    ESP         0.0040
   3655 H           5.1994   -2.4626    0.2242 H     1    ESP         0.0030
   3656 H           5.3038   -2.0166    0.2242 H     1    ESP         0.0015
   3657 H           5.3389   -1.5599   -0.2242 H     1    ESP        -0.0005
   3658 H           5.3038   -1.1033   -0.2242 H     1    ESP        -0.0032
   3659 H           5.1994   -0.6573   -0.2242 H     1    ESP        -0.0070
   3660 H           5.0282   -0.2325   -0.2242 H     1    ESP        -0.0122
   3661 H           3.3585   -4.3754   -0.2242 H     1    ESP         0.0080
   3662 H           3.7764   -4.1881   -0.2242 H     1    ESP         0.0069
   3663 H           4.1608   -3.9391   -0.2242 H     1    ESP         0.0061
   3664 H           4.5028   -3.6344   -0.2242 H     1    ESP         0.0055
   3665 H           4.7942   -3.2811   -0.2242 H     1    ESP         0.0048
   3666 H           5.0282   -2.8874   -0.2242 H     1    ESP         0.0040
   3667 H           5.1994   -2.4626   -0.2242 H     1    ESP         0.0030
   3668 H           5.3038   -2.0166   -0.2242 H     1    ESP         0.0015
   3669 H           3.2511   -4.3416   -0.6676 H     1    ESP         0.0082
   3670 H           3.6751   -4.1659   -0.6676 H     1    ESP         0.0072
   3671 H           4.0664   -3.9261   -0.6676 H     1    ESP         0.0064
   3672 H           4.4154   -3.6281   -0.6676 H     1    ESP         0.0058
   3673 H           4.7134   -3.2791   -0.6676 H     1    ESP         0.0053
   3674 H           3.1242   -4.2423   -1.0960 H     1    ESP         0.0084
   3675 H           3.5444   -4.0829   -1.0960 H     1    ESP         0.0075
   3676 H           3.9336   -3.8582   -1.0960 H     1    ESP         0.0069
   3677 H           2.7984   -4.1185   -1.5000 H     1    ESP         0.0089
   3678 H           3.2358   -4.0013   -1.5000 H     1    ESP         0.0080
   3679 H           2.3472   -3.9054   -1.8705 H     1    ESP         0.0094
   3680 H           2.8048   -3.8603   -1.8705 H     1    ESP         0.0086
   3681 H           0.7519   -2.8322   -2.1992 H     1    ESP         0.0097
   3682 H           1.4619   -3.3984   -2.1992 H     1    ESP         0.0101
   3683 H           1.8932   -3.5493   -2.1992 H     1    ESP         0.0094
   3684 H           2.3472   -3.6004   -2.1992 H     1    ESP         0.0088
   3685 H           0.7972   -2.2332   -2.4787 H     1    ESP         0.0058
   3686 H           1.0363   -2.6264   -2.4787 H     1    ESP         0.0076
   3687 H           1.3727   -2.9406   -2.4787 H     1    ESP         0.0083
   3688 H           1.7813   -3.1523   -2.4787 H     1    ESP         0.0084
   3689 H           2.2319   -3.2459   -2.4787 H     1    ESP         0.0082
   3690 H           1.0456   -1.5599   -2.7029 H     1    ESP         0.0029
   3691 H           1.1241   -2.0051   -2.7029 H     1    ESP         0.0048
   3692 H           1.3501   -2.3966   -2.7029 H     1    ESP         0.0064
   3693 H           1.6964   -2.6872   -2.7029 H     1    ESP         0.0072
   3694 H           1.4630   -1.5599   -2.8667 H     1    ESP         0.0036
   3695 H           1.5814   -2.0021   -2.8667 H     1    ESP         0.0052
   3696 H           2.2063    0.8204    2.8000 H     1    ESP        -0.0135
   3697 H           2.6671    0.8204    2.7618 H     1    ESP        -0.0144
   3698 H           2.4367    1.2195    2.7618 H     1    ESP        -0.0169
   3699 H           1.9758    1.2195    2.7618 H     1    ESP        -0.0161
   3700 H           3.1154    0.8204    2.6483 H     1    ESP        -0.0154
   3701 H           2.9936    1.2750    2.6483 H     1    ESP        -0.0185
   3702 H           2.6608    1.6077    2.6483 H     1    ESP        -0.0199
   3703 H           2.2063    1.7295    2.6483 H     1    ESP        -0.0198
   3704 H           1.7517    1.6077    2.6483 H     1    ESP        -0.0183
   3705 H           2.9936    0.3658    2.6483 H     1    ESP        -0.0111
   3706 H           3.5389    0.8204    2.4625 H     1    ESP        -0.0166
   3707 H           3.4585    1.2762    2.4625 H     1    ESP        -0.0196
   3708 H           3.2271    1.6770    2.4625 H     1    ESP        -0.0215
   3709 H           2.8726    1.9745    2.4625 H     1    ESP        -0.0224
   3710 H           2.4377    2.1328    2.4625 H     1    ESP        -0.0224
   3711 H           1.9748    2.1328    2.4625 H     1    ESP        -0.0217
   3712 H           3.4585    0.3646    2.4625 H     1    ESP        -0.0122
   3713 H           3.9261    0.8204    2.2096 H     1    ESP        -0.0178
   3714 H           3.8623    1.2844    2.2096 H     1    ESP        -0.0209
   3715 H           3.6757    1.7140    2.2096 H     1    ESP        -0.0229
   3716 H           3.3801    2.0773    2.2096 H     1    ESP        -0.0240
   3717 H           2.9975    2.3474    2.2096 H     1    ESP        -0.0246
   3718 H           2.5562    2.5042    2.2096 H     1    ESP        -0.0245
   3719 H           2.0889    2.5362    2.2096 H     1    ESP        -0.0239
   3720 H           3.8623    0.3564    2.2096 H     1    ESP        -0.0135
   3721 H           4.2663    0.8204    1.8964 H     1    ESP        -0.0192
   3722 H           4.2146    1.2788    1.8964 H     1    ESP        -0.0221
   3723 H           4.0623    1.7142    1.8964 H     1    ESP        -0.0240
   3724 H           3.8169    2.1048    1.8964 H     1    ESP        -0.0253
   3725 H           3.4907    2.4310    1.8964 H     1    ESP        -0.0260
   3726 H           3.1001    2.6764    1.8964 H     1    ESP        -0.0263
   3727 H           2.6647    2.8288    1.8964 H     1    ESP        -0.0262
   3728 H           2.2063    2.8804    1.8964 H     1    ESP        -0.0257
   3729 H           4.2146    0.3620    1.8964 H     1    ESP        -0.0150
   3730 H           4.5503    0.8204    1.5315 H     1    ESP        -0.0204
   3731 H           4.5053    1.2777    1.5315 H     1    ESP        -0.0232
   3732 H           4.3719    1.7174    1.5315 H     1    ESP        -0.0251
   3733 H           4.1553    2.1227    1.5315 H     1    ESP        -0.0264
   3734 H           3.8638    2.4779    1.5315 H     1    ESP        -0.0272
   3735 H           3.5086    2.7694    1.5315 H     1    ESP        -0.0276
   3736 H           3.1033    2.9860    1.5315 H     1    ESP        -0.0277
   3737 H           2.6636    3.1194    1.5315 H     1    ESP        -0.0275
   3738 H           2.2063    3.1645    1.5315 H     1    ESP        -0.0270
   3739 H           4.5053    0.3631    1.5315 H     1    ESP        -0.0166
   3740 H           4.7704    0.8204    1.1247 H     1    ESP        -0.0215
   3741 H           4.7292    1.2782    1.1247 H     1    ESP        -0.0241
   3742 H           4.6069    1.7214    1.1247 H     1    ESP        -0.0260
   3743 H           4.4075    2.1355    1.1247 H     1    ESP        -0.0272
   3744 H           4.1373    2.5075    1.1247 H     1    ESP        -0.0280
   3745 H           3.8050    2.8251    1.1247 H     1    ESP        -0.0285
   3746 H           3.4213    3.0784    1.1247 H     1    ESP        -0.0287
   3747 H           2.9986    3.2591    1.1247 H     1    ESP        -0.0287
   3748 H           2.5505    3.3614    1.1247 H     1    ESP        -0.0284
   3749 H           2.0912    3.3820    1.1247 H     1    ESP        -0.0277
   3750 H           4.7292    0.3625    1.1247 H     1    ESP        -0.0180
   3751 H           4.9206    0.8204    0.6874 H     1    ESP        -0.0224
   3752 H           4.8815    1.2791    0.6874 H     1    ESP        -0.0248
   3753 H           4.7655    1.7246    0.6874 H     1    ESP        -0.0266
   3754 H           4.5759    2.1442    0.6874 H     1    ESP        -0.0278
   3755 H           4.3181    2.5256    0.6874 H     1    ESP        -0.0286
   3756 H           3.9995    2.8580    0.6874 H     1    ESP        -0.0291
   3757 H           3.6294    3.1317    0.6874 H     1    ESP        -0.0294
   3758 H           3.2183    3.3390    0.6874 H     1    ESP        -0.0294
   3759 H           2.7781    3.4738    0.6874 H     1    ESP        -0.0292
   3760 H           2.3215    3.5323    0.6874 H     1    ESP        -0.0287
   3761 H           4.8815    0.3617    0.6874 H     1    ESP        -0.0190
   3762 H           4.9967    0.8204    0.2312 H     1    ESP        -0.0228
   3763 H           4.9586    1.2797    0.2312 H     1    ESP        -0.0252
   3764 H           4.8455    1.7264    0.2312 H     1    ESP        -0.0269
   3765 H           4.6604    2.1485    0.2312 H     1    ESP        -0.0282
   3766 H           4.4083    2.5343    0.2312 H     1    ESP        -0.0290
   3767 H           4.0962    2.8734    0.2312 H     1    ESP        -0.0295
   3768 H           3.7325    3.1565    0.2312 H     1    ESP        -0.0297
   3769 H           3.3272    3.3758    0.2312 H     1    ESP        -0.0298
   3770 H           2.8913    3.5254    0.2312 H     1    ESP        -0.0296
   3771 H           2.4367    3.6013    0.2312 H     1    ESP        -0.0291
   3772 H           1.9758    3.6013    0.2312 H     1    ESP        -0.0283
   3773 H           4.9586    0.3611    0.2312 H     1    ESP        -0.0196
   3774 H           4.9967    0.8204   -0.2312 H     1    ESP        -0.0228
   3775 H           4.9586    1.2797   -0.2312 H     1    ESP        -0.0252
   3776 H           4.8455    1.7264   -0.2312 H     1    ESP        -0.0269
   3777 H           4.6604    2.1485   -0.2312 H     1    ESP        -0.0282
   3778 H           4.4083    2.5343   -0.2312 H     1    ESP        -0.0290
   3779 H           4.0962    2.8734   -0.2312 H     1    ESP        -0.0295
   3780 H           3.7325    3.1565   -0.2312 H     1    ESP        -0.0297
   3781 H           3.3272    3.3758   -0.2312 H     1    ESP        -0.0298
   3782 H           2.8913    3.5254   -0.2312 H     1    ESP        -0.0296
   3783 H           2.4367    3.6013   -0.2312 H     1    ESP        -0.0291
   3784 H           1.9758    3.6013   -0.2312 H     1    ESP        -0.0283
   3785 H           4.9586    0.3611   -0.2312 H     1    ESP        -0.0196
   3786 H           4.9206    0.8204   -0.6874 H     1    ESP        -0.0224
   3787 H           4.8815    1.2791   -0.6874 H     1    ESP        -0.0248
   3788 H           4.7655    1.7246   -0.6874 H     1    ESP        -0.0266
   3789 H           4.5759    2.1442   -0.6874 H     1    ESP        -0.0278
   3790 H           4.3181    2.5256   -0.6874 H     1    ESP        -0.0286
   3791 H           3.9995    2.8580   -0.6874 H     1    ESP        -0.0291
   3792 H           3.6294    3.1317   -0.6874 H     1    ESP        -0.0294
   3793 H           3.2183    3.3390   -0.6874 H     1    ESP        -0.0294
   3794 H           2.7781    3.4738   -0.6874 H     1    ESP        -0.0292
   3795 H           2.3215    3.5323   -0.6874 H     1    ESP        -0.0287
   3796 H           4.8815    0.3617   -0.6874 H     1    ESP        -0.0190
   3797 H           4.7704    0.8204   -1.1247 H     1    ESP        -0.0215
   3798 H           4.7292    1.2782   -1.1247 H     1    ESP        -0.0241
   3799 H           4.6069    1.7214   -1.1247 H     1    ESP        -0.0260
   3800 H           4.4075    2.1355   -1.1247 H     1    ESP        -0.0272
   3801 H           4.1373    2.5075   -1.1247 H     1    ESP        -0.0280
   3802 H           3.8050    2.8251   -1.1247 H     1    ESP        -0.0285
   3803 H           3.4213    3.0784   -1.1247 H     1    ESP        -0.0287
   3804 H           2.9986    3.2591   -1.1247 H     1    ESP        -0.0287
   3805 H           2.5505    3.3614   -1.1247 H     1    ESP        -0.0284
   3806 H           2.0912    3.3820   -1.1247 H     1    ESP        -0.0277
   3807 H           4.7292    0.3625   -1.1247 H     1    ESP        -0.0180
   3808 H           4.5503    0.8204   -1.5315 H     1    ESP        -0.0204
   3809 H           4.5053    1.2777   -1.5315 H     1    ESP        -0.0232
   3810 H           4.3719    1.7174   -1.5315 H     1    ESP        -0.0251
   3811 H           4.1553    2.1227   -1.5315 H     1    ESP        -0.0264
   3812 H           3.8638    2.4779   -1.5315 H     1    ESP        -0.0272
   3813 H           3.5086    2.7694   -1.5315 H     1    ESP        -0.0276
   3814 H           3.1033    2.9860   -1.5315 H     1    ESP        -0.0277
   3815 H           2.6636    3.1194   -1.5315 H     1    ESP        -0.0275
   3816 H           2.2063    3.1645   -1.5315 H     1    ESP        -0.0270
   3817 H           4.5053    0.3631   -1.5315 H     1    ESP        -0.0166
   3818 H           4.2663    0.8204   -1.8964 H     1    ESP        -0.0192
   3819 H           4.2146    1.2788   -1.8964 H     1    ESP        -0.0221
   3820 H           4.0623    1.7142   -1.8964 H     1    ESP        -0.0240
   3821 H           3.8169    2.1048   -1.8964 H     1    ESP        -0.0253
   3822 H           3.4907    2.4310   -1.8964 H     1    ESP        -0.0260
   3823 H           3.1001    2.6764   -1.8964 H     1    ESP        -0.0263
   3824 H           2.6647    2.8288   -1.8964 H     1    ESP        -0.0262
   3825 H           2.2063    2.8804   -1.8964 H     1    ESP        -0.0257
   3826 H           4.2146    0.3620   -1.8964 H     1    ESP        -0.0150
   3827 H           3.9261    0.8204   -2.2096 H     1    ESP        -0.0178
   3828 H           3.8623    1.2844   -2.2096 H     1    ESP        -0.0209
   3829 H           3.6757    1.7140   -2.2096 H     1    ESP        -0.0229
   3830 H           3.3801    2.0773   -2.2096 H     1    ESP        -0.0240
   3831 H           2.9975    2.3474   -2.2096 H     1    ESP        -0.0246
   3832 H           2.5562    2.5042   -2.2096 H     1    ESP        -0.0245
   3833 H           2.0889    2.5362   -2.2096 H     1    ESP        -0.0239
   3834 H           3.8623    0.3564   -2.2096 H     1    ESP        -0.0135
   3835 H           3.5389    0.8204   -2.4625 H     1    ESP        -0.0166
   3836 H           3.4585    1.2762   -2.4625 H     1    ESP        -0.0196
   3837 H           3.2271    1.6770   -2.4625 H     1    ESP        -0.0215
   3838 H           2.8726    1.9745   -2.4625 H     1    ESP        -0.0224
   3839 H           2.4377    2.1328   -2.4625 H     1    ESP        -0.0224
   3840 H           1.9748    2.1328   -2.4625 H     1    ESP        -0.0217
   3841 H           3.4585    0.3646   -2.4625 H     1    ESP        -0.0122
   3842 H           3.1154    0.8204   -2.6483 H     1    ESP        -0.0154
   3843 H           2.9936    1.2750   -2.6483 H     1    ESP        -0.0185
   3844 H           2.6608    1.6077   -2.6483 H     1    ESP        -0.0199
   3845 H           2.2063    1.7295   -2.6483 H     1    ESP        -0.0198
   3846 H           1.7517    1.6077   -2.6483 H     1    ESP        -0.0183
   3847 H           2.9936    0.3658   -2.6483 H     1    ESP        -0.0111
   3848 H           2.6671    0.8204   -2.7618 H     1    ESP        -0.0144
   3849 H           2.4367    1.2195   -2.7618 H     1    ESP        -0.0169
   3850 H           1.9758    1.2195   -2.7618 H     1    ESP        -0.0161
   3851 H           2.2063    0.8204   -2.8000 H     1    ESP        -0.0135
   3852 H          -3.8377    2.2047    1.9955 H     1    ESP         0.0080
   3853 H          -4.1924    1.9071    1.9955 H     1    ESP         0.0088
   3854 H          -4.4240    1.5060    1.9955 H     1    ESP         0.0091
   3855 H          -4.5044    1.0500    1.9955 H     1    ESP         0.0089
   3856 H          -3.7393    2.6491    1.6971 H     1    ESP         0.0092
   3857 H          -4.1497    2.4364    1.6971 H     1    ESP         0.0101
   3858 H          -4.4874    2.1210    1.6971 H     1    ESP         0.0107
   3859 H          -4.7276    1.7261    1.6971 H     1    ESP         0.0110
   3860 H          -4.8523    1.2811    1.6971 H     1    ESP         0.0111
   3861 H          -4.8523    0.8189    1.6971 H     1    ESP         0.0108
   3862 H          -4.7276    0.3739    1.6971 H     1    ESP         0.0103
   3863 H          -3.7433    2.9617    1.3334 H     1    ESP         0.0104
   3864 H          -4.1688    2.7782    1.3334 H     1    ESP         0.0112
   3865 H          -4.5404    2.5015    1.3334 H     1    ESP         0.0118
   3866 H          -4.8382    2.1466    1.3334 H     1    ESP         0.0123
   3867 H          -5.0462    1.7325    1.3334 H     1    ESP         0.0125
   3868 H          -5.1530    1.2817    1.3334 H     1    ESP         0.0126
   3869 H          -5.1530    0.8183    1.3334 H     1    ESP         0.0125
   3870 H          -5.0462    0.3675    1.3334 H     1    ESP         0.0124
   3871 H          -3.8562    3.1588    0.9184 H     1    ESP         0.0115
   3872 H          -4.2797    2.9702    0.9184 H     1    ESP         0.0122
   3873 H          -4.6547    2.6978    0.9184 H     1    ESP         0.0128
   3874 H          -4.9648    2.3533    0.9184 H     1    ESP         0.0132
   3875 H          -5.1966    1.9519    0.9184 H     1    ESP         0.0135
   3876 H          -5.3399    1.5110    0.9184 H     1    ESP         0.0136
   3877 H          -5.3883    1.0500    0.9184 H     1    ESP         0.0137
   3878 H          -5.3399    0.5890    0.9184 H     1    ESP         0.0137
   3879 H          -5.1966    0.1481    0.9184 H     1    ESP         0.0139
   3880 H          -3.6302    3.3586    0.4682 H     1    ESP         0.0118
   3881 H          -4.0718    3.2247    0.4682 H     1    ESP         0.0124
   3882 H          -4.4788    3.0072    0.4682 H     1    ESP         0.0130
   3883 H          -4.8355    2.7144    0.4682 H     1    ESP         0.0135
   3884 H          -5.1282    2.3577    0.4682 H     1    ESP         0.0139
   3885 H          -5.3457    1.9508    0.4682 H     1    ESP         0.0141
   3886 H          -5.4797    1.5092    0.4682 H     1    ESP         0.0143
   3887 H          -5.5249    1.0500    0.4682 H     1    ESP         0.0144
   3888 H          -5.4797    0.5908    0.4682 H     1    ESP         0.0145
   3889 H          -5.3457    0.1492    0.4682 H     1    ESP         0.0148
   3890 H          -5.1282   -0.2578    0.4682 H     1    ESP         0.0156
   3891 H          -3.5126    3.4256    0.0000 H     1    ESP         0.0118
   3892 H          -3.9560    3.3180    0.0000 H     1    ESP         0.0124
   3893 H          -4.3710    3.1285    0.0000 H     1    ESP         0.0130
   3894 H          -4.7427    2.8638    0.0000 H     1    ESP         0.0135
   3895 H          -5.0575    2.5336    0.0000 H     1    ESP         0.0139
   3896 H          -5.3042    2.1497    0.0000 H     1    ESP         0.0142
   3897 H          -5.4738    1.7262    0.0000 H     1    ESP         0.0144
   3898 H          -5.5601    1.2781    0.0000 H     1    ESP         0.0145
   3899 H          -5.5601    0.8219    0.0000 H     1    ESP         0.0147
   3900 H          -5.4738    0.3738    0.0000 H     1    ESP         0.0149
   3901 H          -5.3042   -0.0498    0.0000 H     1    ESP         0.0154
   3902 H          -3.6302    3.3586   -0.4682 H     1    ESP         0.0118
   3903 H          -4.0718    3.2247   -0.4682 H     1    ESP         0.0124
   3904 H          -4.4788    3.0072   -0.4682 H     1    ESP         0.0130
   3905 H          -4.8355    2.7144   -0.4682 H     1    ESP         0.0135
   3906 H          -5.1282    2.3577   -0.4682 H     1    ESP         0.0139
   3907 H          -5.3457    1.9508   -0.4682 H     1    ESP         0.0141
   3908 H          -5.4797    1.5092   -0.4682 H     1    ESP         0.0143
   3909 H          -5.5249    1.0500   -0.4682 H     1    ESP         0.0144
   3910 H          -5.4797    0.5908   -0.4682 H     1    ESP         0.0145
   3911 H          -5.3457    0.1492   -0.4682 H     1    ESP         0.0148
   3912 H          -5.1282   -0.2578   -0.4682 H     1    ESP         0.0156
   3913 H          -3.8562    3.1588   -0.9184 H     1    ESP         0.0115
   3914 H          -4.2797    2.9702   -0.9184 H     1    ESP         0.0122
   3915 H          -4.6547    2.6978   -0.9184 H     1    ESP         0.0128
   3916 H          -4.9648    2.3533   -0.9184 H     1    ESP         0.0132
   3917 H          -5.1966    1.9519   -0.9184 H     1    ESP         0.0135
   3918 H          -5.3399    1.5110   -0.9184 H     1    ESP         0.0136
   3919 H          -5.3883    1.0500   -0.9184 H     1    ESP         0.0137
   3920 H          -5.3399    0.5890   -0.9184 H     1    ESP         0.0137
   3921 H          -5.1966    0.1481   -0.9184 H     1    ESP         0.0139
   3922 H          -3.7433    2.9617   -1.3334 H     1    ESP         0.0104
   3923 H          -4.1688    2.7782   -1.3334 H     1    ESP         0.0112
   3924 H          -4.5404    2.5015   -1.3334 H     1    ESP         0.0118
   3925 H          -4.8382    2.1466   -1.3334 H     1    ESP         0.0123
   3926 H          -5.0462    1.7325   -1.3334 H     1    ESP         0.0125
   3927 H          -5.1530    1.2817   -1.3334 H     1    ESP         0.0126
   3928 H          -5.1530    0.8183   -1.3334 H     1    ESP         0.0125
   3929 H          -5.0462    0.3675   -1.3334 H     1    ESP         0.0124
   3930 H          -3.7393    2.6491   -1.6971 H     1    ESP         0.0092
   3931 H          -4.1497    2.4364   -1.6971 H     1    ESP         0.0101
   3932 H          -4.4874    2.1210   -1.6971 H     1    ESP         0.0107
   3933 H          -4.7276    1.7261   -1.6971 H     1    ESP         0.0110
   3934 H          -4.8523    1.2811   -1.6971 H     1    ESP         0.0111
   3935 H          -4.8523    0.8189   -1.6971 H     1    ESP         0.0108
   3936 H          -4.7276    0.3739   -1.6971 H     1    ESP         0.0103
   3937 H          -3.8377    2.2047   -1.9955 H     1    ESP         0.0080
   3938 H          -4.1924    1.9071   -1.9955 H     1    ESP         0.0088
   3939 H          -4.4240    1.5060   -1.9955 H     1    ESP         0.0091
   3940 H          -4.5044    1.0500   -1.9955 H     1    ESP         0.0089
   3941 H          -4.3065   -1.5752    1.9955 H     1    ESP         0.0085
   3942 H          -4.2261   -2.0313    1.9955 H     1    ESP         0.0092
   3943 H          -3.9946   -2.4323    1.9955 H     1    ESP         0.0095
   3944 H          -3.6399   -2.7300    1.9955 H     1    ESP         0.0096
   3945 H          -3.2047   -2.8883    1.9955 H     1    ESP         0.0093
   3946 H          -4.6544   -1.3441    1.6971 H     1    ESP         0.0102
   3947 H          -4.6544   -1.8063    1.6971 H     1    ESP         0.0107
   3948 H          -4.5297   -2.2513    1.6971 H     1    ESP         0.0110
   3949 H          -4.2896   -2.6462    1.6971 H     1    ESP         0.0113
   3950 H          -3.9518   -2.9617    1.6971 H     1    ESP         0.0114
   3951 H          -3.5415   -3.1743    1.6971 H     1    ESP         0.0114
   3952 H          -3.0890   -3.2683    1.6971 H     1    ESP         0.0113
   3953 H          -4.8484   -0.8927    1.3334 H     1    ESP         0.0118
   3954 H          -4.9552   -1.3436    1.3334 H     1    ESP         0.0119
   3955 H          -4.9552   -1.8069    1.3334 H     1    ESP         0.0121
   3956 H          -4.8484   -2.2577    1.3334 H     1    ESP         0.0123
   3957 H          -4.6404   -2.6718    1.3334 H     1    ESP         0.0125
   3958 H          -4.3426   -3.0267    1.3334 H     1    ESP         0.0127
   3959 H          -3.9709   -3.3034    1.3334 H     1    ESP         0.0128
   3960 H          -3.5455   -3.4869    1.3334 H     1    ESP         0.0129
   3961 H          -3.0892   -3.5674    1.3334 H     1    ESP         0.0130
   3962 H          -2.6267   -3.5404    1.3334 H     1    ESP         0.0134
   3963 H          -4.9988   -0.6734    0.9184 H     1    ESP         0.0139
   3964 H          -5.1420   -1.1142    0.9184 H     1    ESP         0.0133
   3965 H          -5.1905   -1.5752    0.9184 H     1    ESP         0.0132
   3966 H          -5.1420   -2.0362    0.9184 H     1    ESP         0.0132
   3967 H          -4.9988   -2.4771    0.9184 H     1    ESP         0.0133
   3968 H          -4.7670   -2.8785    0.9184 H     1    ESP         0.0135
   3969 H          -4.4568   -3.2230    0.9184 H     1    ESP         0.0136
   3970 H          -4.0818   -3.4955    0.9184 H     1    ESP         0.0137
   3971 H          -3.6584   -3.6840    0.9184 H     1    ESP         0.0139
   3972 H          -3.2049   -3.7804    0.9184 H     1    ESP         0.0143
   3973 H          -2.7414   -3.7804    0.9184 H     1    ESP         0.0149
   3974 H          -5.1479   -0.6744    0.4682 H     1    ESP         0.0150
   3975 H          -5.2818   -1.1160    0.4682 H     1    ESP         0.0142
   3976 H          -5.3271   -1.5752    0.4682 H     1    ESP         0.0139
   3977 H          -5.2818   -2.0344    0.4682 H     1    ESP         0.0138
   3978 H          -5.1479   -2.4760    0.4682 H     1    ESP         0.0139
   3979 H          -4.9304   -2.8830    0.4682 H     1    ESP         0.0140
   3980 H          -4.6376   -3.2397    0.4682 H     1    ESP         0.0141
   3981 H          -4.2809   -3.5324    0.4682 H     1    ESP         0.0143
   3982 H          -3.8740   -3.7499    0.4682 H     1    ESP         0.0144
   3983 H          -3.4324   -3.8839    0.4682 H     1    ESP         0.0148
   3984 H          -2.9732   -3.9291    0.4682 H     1    ESP         0.0154
   3985 H          -2.5140   -3.8839    0.4682 H     1    ESP         0.0166
   3986 H          -5.1064   -0.4755    0.0000 H     1    ESP         0.0162
   3987 H          -5.2760   -0.8991    0.0000 H     1    ESP         0.0148
   3988 H          -5.3623   -1.3471    0.0000 H     1    ESP         0.0142
   3989 H          -5.3623   -1.8034    0.0000 H     1    ESP         0.0140
   3990 H          -5.2760   -2.2514    0.0000 H     1    ESP         0.0140
   3991 H          -5.1064   -2.6750    0.0000 H     1    ESP         0.0141
   3992 H          -4.8597   -3.0588    0.0000 H     1    ESP         0.0142
   3993 H          -4.5448   -3.3890    0.0000 H     1    ESP         0.0143
   3994 H          -4.1732   -3.6537    0.0000 H     1    ESP         0.0145
   3995 H          -3.7581   -3.8432    0.0000 H     1    ESP         0.0147
   3996 H          -3.3147   -3.9508    0.0000 H     1    ESP         0.0152
   3997 H          -2.8590   -3.9725    0.0000 H     1    ESP         0.0160
   3998 H          -2.4074   -3.9076    0.0000 H     1    ESP         0.0175
   3999 H          -5.1479   -0.6744   -0.4682 H     1    ESP         0.0150
   4000 H          -5.2818   -1.1160   -0.4682 H     1    ESP         0.0142
   4001 H          -5.3271   -1.5752   -0.4682 H     1    ESP         0.0139
   4002 H          -5.2818   -2.0344   -0.4682 H     1    ESP         0.0138
   4003 H          -5.1479   -2.4760   -0.4682 H     1    ESP         0.0139
   4004 H          -4.9304   -2.8830   -0.4682 H     1    ESP         0.0140
   4005 H          -4.6376   -3.2397   -0.4682 H     1    ESP         0.0141
   4006 H          -4.2809   -3.5324   -0.4682 H     1    ESP         0.0143
   4007 H          -3.8740   -3.7499   -0.4682 H     1    ESP         0.0144
   4008 H          -3.4324   -3.8839   -0.4682 H     1    ESP         0.0148
   4009 H          -2.9732   -3.9291   -0.4682 H     1    ESP         0.0154
   4010 H          -2.5140   -3.8839   -0.4682 H     1    ESP         0.0166
   4011 H          -4.9988   -0.6734   -0.9184 H     1    ESP         0.0139
   4012 H          -5.1420   -1.1142   -0.9184 H     1    ESP         0.0133
   4013 H          -5.1905   -1.5752   -0.9184 H     1    ESP         0.0132
   4014 H          -5.1420   -2.0362   -0.9184 H     1    ESP         0.0132
   4015 H          -4.9988   -2.4771   -0.9184 H     1    ESP         0.0133
   4016 H          -4.7670   -2.8785   -0.9184 H     1    ESP         0.0135
   4017 H          -4.4568   -3.2230   -0.9184 H     1    ESP         0.0136
   4018 H          -4.0818   -3.4955   -0.9184 H     1    ESP         0.0137
   4019 H          -3.6584   -3.6840   -0.9184 H     1    ESP         0.0139
   4020 H          -3.2049   -3.7804   -0.9184 H     1    ESP         0.0143
   4021 H          -2.7414   -3.7804   -0.9184 H     1    ESP         0.0149
   4022 H          -4.8484   -0.8927   -1.3334 H     1    ESP         0.0118
   4023 H          -4.9552   -1.3436   -1.3334 H     1    ESP         0.0119
   4024 H          -4.9552   -1.8069   -1.3334 H     1    ESP         0.0121
   4025 H          -4.8484   -2.2577   -1.3334 H     1    ESP         0.0123
   4026 H          -4.6404   -2.6718   -1.3334 H     1    ESP         0.0125
   4027 H          -4.3426   -3.0267   -1.3334 H     1    ESP         0.0127
   4028 H          -3.9709   -3.3034   -1.3334 H     1    ESP         0.0128
   4029 H          -3.5455   -3.4869   -1.3334 H     1    ESP         0.0129
   4030 H          -3.0892   -3.5674   -1.3334 H     1    ESP         0.0130
   4031 H          -2.6267   -3.5404   -1.3334 H     1    ESP         0.0134
   4032 H          -4.6544   -1.3441   -1.6971 H     1    ESP         0.0102
   4033 H          -4.6544   -1.8063   -1.6971 H     1    ESP         0.0107
   4034 H          -4.5297   -2.2513   -1.6971 H     1    ESP         0.0110
   4035 H          -4.2896   -2.6462   -1.6971 H     1    ESP         0.0113
   4036 H          -3.9518   -2.9617   -1.6971 H     1    ESP         0.0114
   4037 H          -3.5415   -3.1743   -1.6971 H     1    ESP         0.0114
   4038 H          -3.0890   -3.2683   -1.6971 H     1    ESP         0.0113
   4039 H          -4.3065   -1.5752   -1.9955 H     1    ESP         0.0085
   4040 H          -4.2261   -2.0313   -1.9955 H     1    ESP         0.0092
   4041 H          -3.9946   -2.4323   -1.9955 H     1    ESP         0.0095
   4042 H          -3.6399   -2.7300   -1.9955 H     1    ESP         0.0096
   4043 H          -3.2047   -2.8883   -1.9955 H     1    ESP         0.0093
   4044 H          -0.6975   -3.6624    1.9955 H     1    ESP         0.0117
   4045 H          -0.2344   -3.6624    1.9955 H     1    ESP         0.0123
   4046 H           0.2007   -3.5040    1.9955 H     1    ESP         0.0125
   4047 H           0.5555   -3.2064    1.9955 H     1    ESP         0.0122
   4048 H          -1.4446   -3.7357    1.6971 H     1    ESP         0.0126
   4049 H          -1.0343   -3.9484    1.6971 H     1    ESP         0.0132
   4050 H          -0.5818   -4.0424    1.6971 H     1    ESP         0.0138
   4051 H          -0.1207   -4.0108    1.6971 H     1    ESP         0.0143
   4052 H           0.3148   -3.8561    1.6971 H     1    ESP         0.0148
   4053 H          -1.8354   -3.8008    1.3334 H     1    ESP         0.0141
   4054 H          -1.4637   -4.0775    1.3334 H     1    ESP         0.0144
   4055 H          -1.0383   -4.2610    1.3334 H     1    ESP         0.0148
   4056 H          -0.5820   -4.3414    1.3334 H     1    ESP         0.0153
   4057 H          -0.1194   -4.3145    1.3334 H     1    ESP         0.0159
   4058 H           0.3244   -4.1816    1.3334 H     1    ESP         0.0165
   4059 H          -1.9496   -3.9971    0.9184 H     1    ESP         0.0157
   4060 H          -1.5746   -4.2695    0.9184 H     1    ESP         0.0156
   4061 H          -1.1511   -4.4581    0.9184 H     1    ESP         0.0159
   4062 H          -0.6977   -4.5544    0.9184 H     1    ESP         0.0162
   4063 H          -0.2342   -4.5544    0.9184 H     1    ESP         0.0168
   4064 H           0.2192   -4.4581    0.9184 H     1    ESP         0.0175
   4065 H          -2.1304   -4.0137    0.4682 H     1    ESP         0.0169
   4066 H          -1.7737   -4.3065    0.4682 H     1    ESP         0.0164
   4067 H          -1.3667   -4.5240    0.4682 H     1    ESP         0.0164
   4068 H          -0.9252   -4.6579    0.4682 H     1    ESP         0.0167
   4069 H          -0.4660   -4.7032    0.4682 H     1    ESP         0.0171
   4070 H          -0.0067   -4.6579    0.4682 H     1    ESP         0.0178
   4071 H           0.4348   -4.5240    0.4682 H     1    ESP         0.0187
   4072 H          -2.0376   -4.1631    0.0000 H     1    ESP         0.0170
   4073 H          -1.6660   -4.4277    0.0000 H     1    ESP         0.0166
   4074 H          -1.2509   -4.6173    0.0000 H     1    ESP         0.0167
   4075 H          -0.8075   -4.7249    0.0000 H     1    ESP         0.0170
   4076 H          -0.3518   -4.7466    0.0000 H     1    ESP         0.0175
   4077 H           0.0999   -4.6816    0.0000 H     1    ESP         0.0182
   4078 H          -2.1304   -4.0137   -0.4682 H     1    ESP         0.0169
   4079 H          -1.7737   -4.3065   -0.4682 H     1    ESP         0.0164
   4080 H          -1.3667   -4.5240   -0.4682 H     1    ESP         0.0164
   4081 H          -0.9252   -4.6579   -0.4682 H     1    ESP         0.0167
   4082 H          -0.4660   -4.7032   -0.4682 H     1    ESP         0.0171
   4083 H          -0.0067   -4.6579   -0.4682 H     1    ESP         0.0178
   4084 H           0.4348   -4.5240   -0.4682 H     1    ESP         0.0187
   4085 H          -1.9496   -3.9971   -0.9184 H     1    ESP         0.0157
   4086 H          -1.5746   -4.2695   -0.9184 H     1    ESP         0.0156
   4087 H          -1.1511   -4.4581   -0.9184 H     1    ESP         0.0159
   4088 H          -0.6977   -4.5544   -0.9184 H     1    ESP         0.0162
   4089 H          -0.2342   -4.5544   -0.9184 H     1    ESP         0.0168
   4090 H           0.2192   -4.4581   -0.9184 H     1    ESP         0.0175
   4091 H          -1.8354   -3.8008   -1.3334 H     1    ESP         0.0141
   4092 H          -1.4637   -4.0775   -1.3334 H     1    ESP         0.0144
   4093 H          -1.0383   -4.2610   -1.3334 H     1    ESP         0.0148
   4094 H          -0.5820   -4.3414   -1.3334 H     1    ESP         0.0153
   4095 H          -0.1194   -4.3145   -1.3334 H     1    ESP         0.0159
   4096 H           0.3244   -4.1816   -1.3334 H     1    ESP         0.0165
   4097 H          -1.4446   -3.7357   -1.6971 H     1    ESP         0.0126
   4098 H          -1.0343   -3.9484   -1.6971 H     1    ESP         0.0132
   4099 H          -0.5818   -4.0424   -1.6971 H     1    ESP         0.0138
   4100 H          -0.1207   -4.0108   -1.6971 H     1    ESP         0.0143
   4101 H           0.3148   -3.8561   -1.6971 H     1    ESP         0.0148
   4102 H          -0.6975   -3.6624   -1.9955 H     1    ESP         0.0117
   4103 H          -0.2344   -3.6624   -1.9955 H     1    ESP         0.0123
   4104 H           0.2007   -3.5040   -1.9955 H     1    ESP         0.0125
   4105 H           0.5555   -3.2064   -1.9955 H     1    ESP         0.0122
   4106 H           0.6905   -3.3047    1.9955 H     1    ESP         0.0123
   4107 H           1.0452   -3.6023    1.9955 H     1    ESP         0.0119
   4108 H           1.4804   -3.7607    1.9955 H     1    ESP         0.0110
   4109 H           0.7333   -3.8341    1.6971 H     1    ESP         0.0144
   4110 H           1.1436   -4.0467    1.6971 H     1    ESP         0.0130
   4111 H           1.5961   -4.1407    1.6971 H     1    ESP         0.0117
   4112 H           2.0572   -4.1092    1.6971 H     1    ESP         0.0105
   4113 H           0.7142   -4.1758    1.3334 H     1    ESP         0.0160
   4114 H           1.1396   -4.3593    1.3334 H     1    ESP         0.0141
   4115 H           1.5959   -4.4398    1.3334 H     1    ESP         0.0125
   4116 H           2.0584   -4.4128    1.3334 H     1    ESP         0.0111
   4117 H           2.5023   -4.2799    1.3334 H     1    ESP         0.0099
   4118 H           0.6033   -4.3679    0.9184 H     1    ESP         0.0178
   4119 H           1.0267   -4.5564    0.9184 H     1    ESP         0.0154
   4120 H           1.4802   -4.6528    0.9184 H     1    ESP         0.0135
   4121 H           1.9437   -4.6528    0.9184 H     1    ESP         0.0119
   4122 H           2.3971   -4.5564    0.9184 H     1    ESP         0.0105
   4123 H           0.8111   -4.6223    0.4682 H     1    ESP         0.0171
   4124 H           1.2527   -4.7563    0.4682 H     1    ESP         0.0148
   4125 H           1.7119   -4.8015    0.4682 H     1    ESP         0.0130
   4126 H           2.1711   -4.7563    0.4682 H     1    ESP         0.0115
   4127 H           2.6127   -4.6223    0.4682 H     1    ESP         0.0102
   4128 H           0.9270   -4.7156    0.0000 H     1    ESP         0.0166
   4129 H           1.3704   -4.8232    0.0000 H     1    ESP         0.0145
   4130 H           1.8261   -4.8449    0.0000 H     1    ESP         0.0127
   4131 H           2.2777   -4.7800    0.0000 H     1    ESP         0.0113
   4132 H           2.7089   -4.6307    0.0000 H     1    ESP         0.0100
   4133 H           0.8111   -4.6223   -0.4682 H     1    ESP         0.0171
   4134 H           1.2527   -4.7563   -0.4682 H     1    ESP         0.0148
   4135 H           1.7119   -4.8015   -0.4682 H     1    ESP         0.0130
   4136 H           2.1711   -4.7563   -0.4682 H     1    ESP         0.0115
   4137 H           2.6127   -4.6223   -0.4682 H     1    ESP         0.0102
   4138 H           0.6033   -4.3679   -0.9184 H     1    ESP         0.0178
   4139 H           1.0267   -4.5564   -0.9184 H     1    ESP         0.0154
   4140 H           1.4802   -4.6528   -0.9184 H     1    ESP         0.0135
   4141 H           1.9437   -4.6528   -0.9184 H     1    ESP         0.0119
   4142 H           2.3971   -4.5564   -0.9184 H     1    ESP         0.0105
   4143 H           0.7142   -4.1758   -1.3334 H     1    ESP         0.0160
   4144 H           1.1396   -4.3593   -1.3334 H     1    ESP         0.0141
   4145 H           1.5959   -4.4398   -1.3334 H     1    ESP         0.0125
   4146 H           2.0584   -4.4128   -1.3334 H     1    ESP         0.0111
   4147 H           2.5023   -4.2799   -1.3334 H     1    ESP         0.0099
   4148 H           0.7333   -3.8341   -1.6971 H     1    ESP         0.0144
   4149 H           1.1436   -4.0467   -1.6971 H     1    ESP         0.0130
   4150 H           1.5961   -4.1407   -1.6971 H     1    ESP         0.0117
   4151 H           2.0572   -4.1092   -1.6971 H     1    ESP         0.0105
   4152 H           0.6905   -3.3047   -1.9955 H     1    ESP         0.0123
   4153 H           1.0452   -3.6023   -1.9955 H     1    ESP         0.0119
   4154 H           1.4804   -3.7607   -1.9955 H     1    ESP         0.0110
   4155 H           5.3502   -1.5849   -0.4133 H     1    ESP        -0.0002
   4156 H           5.3049   -1.1257   -0.4133 H     1    ESP        -0.0029
   4157 H           5.1710   -2.4857   -0.4133 H     1    ESP         0.0032
   4158 H           5.3049   -2.0441   -0.4133 H     1    ESP         0.0018
   4159 H           5.3963   -1.5849   -0.8815 H     1    ESP         0.0003
   4160 H           5.3529   -1.1307   -0.8815 H     1    ESP        -0.0021
   4161 H           5.2244   -0.6929   -0.8815 H     1    ESP        -0.0054
   4162 H           5.0153   -0.2873   -0.8815 H     1    ESP        -0.0098
   4163 H           4.7333   -3.2411   -0.8815 H     1    ESP         0.0054
   4164 H           5.0153   -2.8824   -0.8815 H     1    ESP         0.0045
   4165 H           5.2244   -2.4769   -0.8815 H     1    ESP         0.0035
   4166 H           5.3529   -2.0391   -0.8815 H     1    ESP         0.0021
   4167 H           5.3502   -1.5849   -1.3497 H     1    ESP         0.0010
   4168 H           5.3049   -1.1257   -1.3497 H     1    ESP        -0.0013
   4169 H           5.1710   -0.6841   -1.3497 H     1    ESP        -0.0043
   4170 H           4.9535   -0.2771   -1.3497 H     1    ESP        -0.0082
   4171 H           4.6607    0.0796   -1.3497 H     1    ESP        -0.0135
   4172 H           3.8971   -3.7596   -1.3497 H     1    ESP         0.0071
   4173 H           4.3040   -3.5421   -1.3497 H     1    ESP         0.0064
   4174 H           4.6607   -3.2493   -1.3497 H     1    ESP         0.0058
   4175 H           4.9535   -2.8926   -1.3497 H     1    ESP         0.0050
   4176 H           5.1710   -2.4857   -1.3497 H     1    ESP         0.0040
   4177 H           5.3049   -2.0441   -1.3497 H     1    ESP         0.0027
   4178 H           5.2136   -1.5849   -1.7999 H     1    ESP         0.0017
   4179 H           5.1651   -1.1239   -1.7999 H     1    ESP        -0.0004
   4180 H           5.0219   -0.6830   -1.7999 H     1    ESP        -0.0031
   4181 H           4.7901   -0.2816   -1.7999 H     1    ESP        -0.0066
   4182 H           4.4800    0.0629   -1.7999 H     1    ESP        -0.0110
   4183 H           3.6815   -3.6937   -1.7999 H     1    ESP         0.0074
   4184 H           4.1049   -3.5051   -1.7999 H     1    ESP         0.0068
   4185 H           4.4800   -3.2327   -1.7999 H     1    ESP         0.0062
   4186 H           4.7901   -2.8882   -1.7999 H     1    ESP         0.0055
   4187 H           5.0219   -2.4867   -1.7999 H     1    ESP         0.0045
   4188 H           5.1651   -2.0459   -1.7999 H     1    ESP         0.0033
   4189 H           4.9918   -1.5849   -2.2149 H     1    ESP         0.0024
   4190 H           4.9380   -1.1247   -2.2149 H     1    ESP         0.0004
   4191 H           4.7796   -0.6893   -2.2149 H     1    ESP        -0.0021
   4192 H           4.5250   -0.3022   -2.2149 H     1    ESP        -0.0051
   4193 H           4.1879    0.0158   -2.2149 H     1    ESP        -0.0086
   4194 H           2.8803   -3.5770   -2.2149 H     1    ESP         0.0082
   4195 H           3.3428   -3.5501   -2.2149 H     1    ESP         0.0076
   4196 H           3.7867   -3.4172   -2.2149 H     1    ESP         0.0071
   4197 H           4.1879   -3.1855   -2.2149 H     1    ESP         0.0066
   4198 H           4.5250   -2.8676   -2.2149 H     1    ESP         0.0059
   4199 H           4.7796   -2.4805   -2.2149 H     1    ESP         0.0051
   4200 H           4.9380   -2.0451   -2.2149 H     1    ESP         0.0039
   4201 H           4.6933   -1.5849   -2.5785 H     1    ESP         0.0030
   4202 H           4.6304   -1.1270   -2.5785 H     1    ESP         0.0011
   4203 H           4.4463   -0.7031   -2.5785 H     1    ESP        -0.0012
   4204 H           4.1546   -0.3446   -2.5785 H     1    ESP        -0.0038
   4205 H           3.7770   -0.0781   -2.5785 H     1    ESP        -0.0063
   4206 H           3.3416    0.0767   -2.5785 H     1    ESP        -0.0080
   4207 H           2.4280   -3.1840   -2.5785 H     1    ESP         0.0079
   4208 H           2.8805   -3.2780   -2.5785 H     1    ESP         0.0076
   4209 H           3.3416   -3.2464   -2.5785 H     1    ESP         0.0073
   4210 H           3.7770   -3.0917   -2.5785 H     1    ESP         0.0068
   4211 H           4.1546   -2.8252   -2.5785 H     1    ESP         0.0063
   4212 H           4.4463   -2.4666   -2.5785 H     1    ESP         0.0055
   4213 H           4.6304   -2.0427   -2.5785 H     1    ESP         0.0044
   4214 H           4.3297   -1.5849   -2.8770 H     1    ESP         0.0034
   4215 H           4.2492   -1.1288   -2.8770 H     1    ESP         0.0016
   4216 H           4.0177   -0.7278   -2.8770 H     1    ESP        -0.0004
   4217 H           3.6630   -0.4302   -2.8770 H     1    ESP        -0.0023
   4218 H           3.2278   -0.2718   -2.8770 H     1    ESP        -0.0035
   4219 H           2.7648   -0.2718   -2.8770 H     1    ESP        -0.0032
   4220 H           1.9749   -2.4420   -2.8770 H     1    ESP         0.0065
   4221 H           2.3296   -2.7396   -2.8770 H     1    ESP         0.0070
   4222 H           2.7648   -2.8980   -2.8770 H     1    ESP         0.0071
   4223 H           3.2278   -2.8980   -2.8770 H     1    ESP         0.0069
   4224 H           3.6630   -2.7396   -2.8770 H     1    ESP         0.0065
   4225 H           4.0177   -2.4420   -2.8770 H     1    ESP         0.0058
   4226 H           4.2492   -2.0409   -2.8770 H     1    ESP         0.0048
   4227 H           3.9147   -1.5849   -3.0988 H     1    ESP         0.0037
   4228 H           3.7917   -1.1257   -3.0988 H     1    ESP         0.0020
   4229 H           3.4555   -0.7895   -3.0988 H     1    ESP         0.0004
   4230 H           2.9963   -0.6664   -3.0988 H     1    ESP        -0.0002
   4231 H           2.5371   -0.7895   -3.0988 H     1    ESP         0.0007
   4232 H           2.2009   -1.1257   -3.0988 H     1    ESP         0.0024
   4233 H           2.0779   -1.5849   -3.0988 H     1    ESP         0.0041
   4234 H           2.2009   -2.0441   -3.0988 H     1    ESP         0.0054
   4235 H           2.5371   -2.3803   -3.0988 H     1    ESP         0.0061
   4236 H           2.9963   -2.5033   -3.0988 H     1    ESP         0.0063
   4237 H           3.4555   -2.3803   -3.0988 H     1    ESP         0.0059
   4238 H           3.7917   -2.0441   -3.0988 H     1    ESP         0.0051
   4239 H           3.4645   -1.5849   -3.2354 H     1    ESP         0.0039
   4240 H           3.2304   -1.1794   -3.2354 H     1    ESP         0.0024
   4241 H           2.7622   -1.1794   -3.2354 H     1    ESP         0.0025
   4242 H           2.5281   -1.5849   -3.2354 H     1    ESP         0.0040
   4243 H           2.7622   -1.9904   -3.2354 H     1    ESP         0.0052
   4244 H           3.2304   -1.9904   -3.2354 H     1    ESP         0.0051
   4245 H           2.9963   -1.5849   -3.2815 H     1    ESP         0.0040
   4246 H           2.9963   -1.5849    3.2815 H     1    ESP         0.0040
   4247 H           3.4645   -1.5849    3.2354 H     1    ESP         0.0039
   4248 H           3.2304   -1.1794    3.2354 H     1    ESP         0.0024
   4249 H           2.7622   -1.1794    3.2354 H     1    ESP         0.0025
   4250 H           2.5281   -1.5849    3.2354 H     1    ESP         0.0040
   4251 H           2.7622   -1.9904    3.2354 H     1    ESP         0.0052
   4252 H           3.2304   -1.9904    3.2354 H     1    ESP         0.0051
   4253 H           3.9147   -1.5849    3.0988 H     1    ESP         0.0037
   4254 H           3.7917   -1.1257    3.0988 H     1    ESP         0.0020
   4255 H           3.4555   -0.7895    3.0988 H     1    ESP         0.0004
   4256 H           2.9963   -0.6664    3.0988 H     1    ESP        -0.0002
   4257 H           2.5371   -0.7895    3.0988 H     1    ESP         0.0007
   4258 H           2.2009   -1.1257    3.0988 H     1    ESP         0.0024
   4259 H           2.0779   -1.5849    3.0988 H     1    ESP         0.0041
   4260 H           2.2009   -2.0441    3.0988 H     1    ESP         0.0054
   4261 H           2.5371   -2.3803    3.0988 H     1    ESP         0.0061
   4262 H           2.9963   -2.5033    3.0988 H     1    ESP         0.0063
   4263 H           3.4555   -2.3803    3.0988 H     1    ESP         0.0059
   4264 H           3.7917   -2.0441    3.0988 H     1    ESP         0.0051
   4265 H           4.3297   -1.5849    2.8770 H     1    ESP         0.0034
   4266 H           4.2492   -1.1288    2.8770 H     1    ESP         0.0016
   4267 H           4.0177   -0.7278    2.8770 H     1    ESP        -0.0004
   4268 H           3.6630   -0.4302    2.8770 H     1    ESP        -0.0023
   4269 H           3.2278   -0.2718    2.8770 H     1    ESP        -0.0035
   4270 H           2.7648   -0.2718    2.8770 H     1    ESP        -0.0032
   4271 H           1.9749   -2.4420    2.8770 H     1    ESP         0.0065
   4272 H           2.3296   -2.7396    2.8770 H     1    ESP         0.0070
   4273 H           2.7648   -2.8980    2.8770 H     1    ESP         0.0071
   4274 H           3.2278   -2.8980    2.8770 H     1    ESP         0.0069
   4275 H           3.6630   -2.7396    2.8770 H     1    ESP         0.0065
   4276 H           4.0177   -2.4420    2.8770 H     1    ESP         0.0058
   4277 H           4.2492   -2.0409    2.8770 H     1    ESP         0.0048
   4278 H           4.6933   -1.5849    2.5785 H     1    ESP         0.0030
   4279 H           4.6304   -1.1270    2.5785 H     1    ESP         0.0011
   4280 H           4.4463   -0.7031    2.5785 H     1    ESP        -0.0012
   4281 H           4.1546   -0.3446    2.5785 H     1    ESP        -0.0038
   4282 H           3.7770   -0.0781    2.5785 H     1    ESP        -0.0063
   4283 H           3.3416    0.0767    2.5785 H     1    ESP        -0.0080
   4284 H           2.4280   -3.1840    2.5785 H     1    ESP         0.0079
   4285 H           2.8805   -3.2780    2.5785 H     1    ESP         0.0076
   4286 H           3.3416   -3.2464    2.5785 H     1    ESP         0.0073
   4287 H           3.7770   -3.0917    2.5785 H     1    ESP         0.0068
   4288 H           4.1546   -2.8252    2.5785 H     1    ESP         0.0063
   4289 H           4.4463   -2.4666    2.5785 H     1    ESP         0.0055
   4290 H           4.6304   -2.0427    2.5785 H     1    ESP         0.0044
   4291 H           4.9918   -1.5849    2.2149 H     1    ESP         0.0024
   4292 H           4.9380   -1.1247    2.2149 H     1    ESP         0.0004
   4293 H           4.7796   -0.6893    2.2149 H     1    ESP        -0.0021
   4294 H           4.5250   -0.3022    2.2149 H     1    ESP        -0.0051
   4295 H           4.1879    0.0158    2.2149 H     1    ESP        -0.0086
   4296 H           2.8803   -3.5770    2.2149 H     1    ESP         0.0082
   4297 H           3.3428   -3.5501    2.2149 H     1    ESP         0.0076
   4298 H           3.7867   -3.4172    2.2149 H     1    ESP         0.0071
   4299 H           4.1879   -3.1855    2.2149 H     1    ESP         0.0066
   4300 H           4.5250   -2.8676    2.2149 H     1    ESP         0.0059
   4301 H           4.7796   -2.4805    2.2149 H     1    ESP         0.0051
   4302 H           4.9380   -2.0451    2.2149 H     1    ESP         0.0039
   4303 H           5.2136   -1.5849    1.7999 H     1    ESP         0.0017
   4304 H           5.1651   -1.1239    1.7999 H     1    ESP        -0.0004
   4305 H           5.0219   -0.6830    1.7999 H     1    ESP        -0.0031
   4306 H           4.7901   -0.2816    1.7999 H     1    ESP        -0.0066
   4307 H           4.4800    0.0629    1.7999 H     1    ESP        -0.0110
   4308 H           3.6815   -3.6937    1.7999 H     1    ESP         0.0074
   4309 H           4.1049   -3.5051    1.7999 H     1    ESP         0.0068
   4310 H           4.4800   -3.2327    1.7999 H     1    ESP         0.0062
   4311 H           4.7901   -2.8882    1.7999 H     1    ESP         0.0055
   4312 H           5.0219   -2.4867    1.7999 H     1    ESP         0.0045
   4313 H           5.1651   -2.0459    1.7999 H     1    ESP         0.0033
   4314 H           5.3502   -1.5849    1.3497 H     1    ESP         0.0010
   4315 H           5.3049   -1.1257    1.3497 H     1    ESP        -0.0013
   4316 H           5.1710   -0.6841    1.3497 H     1    ESP        -0.0043
   4317 H           4.9535   -0.2771    1.3497 H     1    ESP        -0.0082
   4318 H           4.6607    0.0796    1.3497 H     1    ESP        -0.0135
   4319 H           3.8971   -3.7596    1.3497 H     1    ESP         0.0071
   4320 H           4.3040   -3.5421    1.3497 H     1    ESP         0.0064
   4321 H           4.6607   -3.2493    1.3497 H     1    ESP         0.0058
   4322 H           4.9535   -2.8926    1.3497 H     1    ESP         0.0050
   4323 H           5.1710   -2.4857    1.3497 H     1    ESP         0.0040
   4324 H           5.3049   -2.0441    1.3497 H     1    ESP         0.0027
   4325 H           5.3963   -1.5849    0.8815 H     1    ESP         0.0003
   4326 H           5.3529   -1.1307    0.8815 H     1    ESP        -0.0021
   4327 H           5.2244   -0.6929    0.8815 H     1    ESP        -0.0054
   4328 H           5.0153   -0.2873    0.8815 H     1    ESP        -0.0098
   4329 H           4.7333   -3.2411    0.8815 H     1    ESP         0.0054
   4330 H           5.0153   -2.8824    0.8815 H     1    ESP         0.0045
   4331 H           5.2244   -2.4769    0.8815 H     1    ESP         0.0035
   4332 H           5.3529   -2.0391    0.8815 H     1    ESP         0.0021
   4333 H           5.3502   -1.5849    0.4133 H     1    ESP        -0.0002
   4334 H           5.3049   -1.1257    0.4133 H     1    ESP        -0.0029
   4335 H           5.1710   -2.4857    0.4133 H     1    ESP         0.0032
   4336 H           5.3049   -2.0441    0.4133 H     1    ESP         0.0018
