@<TRIPOS>MOLECULE
opt.xyz
 14 14 0 0 0
SMALL
GASTEIGER

@<TRIPOS>ATOM
      1 S          -0.7265    1.2774    0.0000 S.2     1  UNL1       -0.0938
      2 C          -2.2544    0.4737    0.0000 C.ar    1  UNL1       -0.0236
      3 C          -2.1294   -0.8942    0.0000 C.ar    1  UNL1       -0.0541
      4 C          -0.7717   -1.3096    0.0000 C.ar    1  UNL1       -0.0442
      5 C           0.1200   -0.2552    0.0000 C.ar    1  UNL1        0.0542
      6 C           1.5912   -0.2386    0.0000 C.2     1  UNL1        0.1666
      7 C           2.3472   -1.5599    0.0000 C.3     1  UNL1       -0.0009
      8 O           2.2063    0.8204    0.0000 O.2     1  UNL1       -0.2918
      9 H          -3.1710    1.0500    0.0000 H       1  UNL1        0.0693
     10 H          -2.9732   -1.5752    0.0000 H       1  UNL1        0.0623
     11 H          -0.4660   -2.3493    0.0000 H       1  UNL1        0.0630
     12 H           1.7119   -2.4476    0.0000 H       1  UNL1        0.0309
     13 H           2.9963   -1.5849   -0.8815 H       1  UNL1        0.0309
     14 H           2.9963   -1.5849    0.8815 H       1  UNL1        0.0309
@<TRIPOS>BOND
     1    13     7    1
     2     1     2   ar
     3     1     5   ar
     4     2     3   ar
     5     2     9    1
     6     3     4   ar
     7     3    10    1
     8     4     5   ar
     9     4    11    1
    10     5     6    1
    11     6     7    1
    12     6     8    2
    13     7    12    1
    14     7    14    1
