@<TRIPOS>MOLECULE
MOL
   14    14     1     0     0
SMALL
resp


@<TRIPOS>ATOM
      1 S1          -0.7260     1.2770     0.0000 S.3        1 MOL       0.068943
      2 C1          -2.2540     0.4740     0.0000 C.2        1 MOL      -0.166991
      3 C2          -2.1290    -0.8940     0.0000 C.2        1 MOL      -0.219443
      4 C3          -0.7720    -1.3100     0.0000 C.2        1 MOL      -0.055655
      5 C4           0.1200    -0.2550     0.0000 C.2        1 MOL      -0.214292
      6 C5           1.5910    -0.2390     0.0000 C.2        1 MOL       0.693509
      7 C6           2.3470    -1.5600     0.0000 C.3        1 MOL      -0.630718
      8 O1           2.2060     0.8200     0.0000 O.2        1 MOL      -0.486434
      9 H1          -3.1710     1.0500     0.0000 H          1 MOL       0.196596
     10 H2          -2.9730    -1.5750     0.0000 H          1 MOL       0.167744
     11 H3          -0.4660    -2.3490     0.0000 H          1 MOL       0.139263
     12 H4           1.7120    -2.4480     0.0000 H          1 MOL       0.169159
     13 H5           2.9960    -1.5850    -0.8810 H          1 MOL       0.169159
     14 H6           2.9960    -1.5850     0.8810 H          1 MOL       0.169159
@<TRIPOS>BOND
     1     1     2 1   
     2     1     5 1   
     3     2     3 2   
     4     2     9 1   
     5     3     4 1   
     6     3    10 1   
     7     4     5 2   
     8     4    11 1   
     9     5     6 1   
    10     6     7 1   
    11     6     8 2   
    12     7    12 1   
    13     7    13 1   
    14     7    14 1   
@<TRIPOS>SUBSTRUCTURE
     1 MOL         1 TEMP              0 ****  ****    0 ROOT
