@<TRIPOS>MOLECULE
opt.xyz
   12    12     1     0     0
SMALL
bcc


@<TRIPOS>ATOM
      1 C            0.2650    -1.2150     0.0020 ca         1 UNL      -0.097000
      2 C1           1.6610    -1.1990     0.0150 ca         1 UNL      -0.091000
      3 C2           2.3550     0.0120     0.0210 ca         1 UNL      -0.099000
      4 C3           1.6480     1.2160     0.0160 ca         1 UNL      -0.091000
      5 C4           0.2530     1.2180     0.0030 ca         1 UNL      -0.097000
      6 C5          -0.4240    -0.0020    -0.0040 ca         1 UNL      -0.030600
      7 Cl          -2.1850    -0.0110    -0.0200 cl         1 UNL      -0.043400
      8 H           -0.2840    -2.1500    -0.0040 ha         1 UNL       0.117000
      9 H1           2.2040    -2.1400     0.0190 ha         1 UNL       0.105000
     10 H2           3.4410     0.0180     0.0310 ha         1 UNL       0.106000
     11 H3           2.1810     2.1630     0.0210 ha         1 UNL       0.105000
     12 H4          -0.3070     2.1470    -0.0020 ha         1 UNL       0.117000
@<TRIPOS>BOND
     1     7     6 1   
     2     6     1 ar  
     3     6     5 ar  
     4     8     1 1   
     5    12     5 1   
     6     1     2 ar  
     7     5     4 ar  
     8     2     9 1   
     9     2     3 ar  
    10     4    11 1   
    11     4     3 ar  
    12     3    10 1   
@<TRIPOS>SUBSTRUCTURE
     1 UNL         1 TEMP              0 ****  ****    0 ROOT
