@<TRIPOS>MOLECULE
opt.xyz
 8 8 0 0 0
SMALL
GASTEIGER

@<TRIPOS>ATOM
      1 C          -0.0292    1.2400    0.0041 C.ar    1  UNL1       -0.0048
      2 C           1.2420    0.7411   -0.0031 C.ar    1  UNL1        0.0347
      3 N           1.3546   -0.6324   -0.0088 N.ar    1  UNL1       -0.2557
      4 C           0.1769   -1.1831   -0.0052 C.ar    1  UNL1        0.0647
      5 S          -1.1716   -0.0655    0.0056 S.2     1  UNL1       -0.0839
      6 H          -0.3489    2.2729    0.0090 H       1  UNL1        0.0709
      7 H           2.1433    1.3433   -0.0052 H       1  UNL1        0.0835
      8 H           0.0065   -2.2538   -0.0084 H       1  UNL1        0.0907
@<TRIPOS>BOND
     1     3     4   ar
     2     3     2   ar
     3     8     4    1
     4     7     2    1
     5     4     5   ar
     6     2     1   ar
     7     1     5   ar
     8     1     6    1
