@<TRIPOS>MOLECULE
opt.xyz
    8     8     1     0     0
SMALL
bcc


@<TRIPOS>ATOM
      1 C           -0.0290     1.2400     0.0040 cc         1 UNL      -0.114400
      2 C1           1.2420     0.7410    -0.0030 cc         1 UNL       0.347200
      3 N            1.3550    -0.6320    -0.0090 nc         1 UNL      -0.557000
      4 C2           0.1770    -1.1830    -0.0050 cd         1 UNL       0.479300
      5 S           -1.1720    -0.0660     0.0060 ss         1 UNL      -0.324300
      6 H           -0.3490     2.2730     0.0090 h4         1 UNL       0.157000
      7 H1           2.1430     1.3430    -0.0050 h4         1 UNL       0.000100
      8 H2           0.0060    -2.2540    -0.0080 h5         1 UNL       0.014100
@<TRIPOS>BOND
     1     3     4 2   
     2     3     2 1   
     3     8     4 1   
     4     7     2 1   
     5     4     5 1   
     6     2     1 2   
     7     1     5 1   
     8     1     6 1   
@<TRIPOS>SUBSTRUCTURE
     1 UNL         1 TEMP              0 ****  ****    0 ROOT
