@<TRIPOS>MOLECULE
ffESP.mol2
 3289 0 1
SMALL
USER_CHARGES
@<TRIPOS>ATOM
      8 H          -0.0292    1.2400    2.1041 H     1    ESP        -0.0051
      8 H           0.4381    1.2400    2.0515 H     1    ESP        -0.0052
      8 H           0.2044    1.6447    2.0515 H     1    ESP        -0.0030
      8 H          -0.2629    1.6447    2.0515 H     1    ESP        -0.0027
      8 H          -0.4965    1.2400    2.0515 H     1    ESP        -0.0046
      8 H           0.2044    0.8353    2.0515 H     1    ESP        -0.0072
      8 H           0.7598    1.6956    1.8961 H     1    ESP        -0.0019
      8 H           0.4263    2.0291    1.8961 H     1    ESP        -0.0003
      8 H          -0.0292    2.1512    1.8961 H     1    ESP         0.0009
      8 H          -0.4848    2.0291    1.8961 H     1    ESP         0.0006
      8 H          -0.8183    1.6956    1.8961 H     1    ESP        -0.0015
      8 H           0.9738    2.0816    1.6459 H     1    ESP         0.0016
      8 H           0.6254    2.3739    1.6459 H     1    ESP         0.0030
      8 H           0.1981    2.5295    1.6459 H     1    ESP         0.0049
      8 H          -1.0322    2.0816    1.6459 H     1    ESP         0.0027
      8 H           1.0459    2.4808    1.3134 H     1    ESP         0.0054
      8 H           0.6528    2.7335    1.3134 H     1    ESP         0.0074
      8 H          -1.4104    2.1277    1.3134 H     1    ESP         0.0048
      8 H           1.0456    2.7971    0.9153 H     1    ESP         0.0091
      8 H           1.2473    2.8407    0.4714 H     1    ESP         0.0112
      8 H           1.3303    2.8406    0.0041 H     1    ESP         0.0122
      8 H           1.2473    2.8407   -0.4632 H     1    ESP         0.0112
      8 H           1.0456    2.7971   -0.9071 H     1    ESP         0.0091
      8 H           1.0459    2.4808   -1.3052 H     1    ESP         0.0054
      8 H           0.6528    2.7335   -1.3052 H     1    ESP         0.0072
      8 H          -1.4104    2.1277   -1.3052 H     1    ESP         0.0046
      8 H           0.9738    2.0816   -1.6377 H     1    ESP         0.0016
      8 H           0.6254    2.3739   -1.6377 H     1    ESP         0.0029
      8 H           0.1981    2.5295   -1.6377 H     1    ESP         0.0047
      8 H          -0.6839    2.3739   -1.6377 H     1    ESP         0.0051
      8 H          -1.0322    2.0816   -1.6377 H     1    ESP         0.0025
      8 H           0.7598    1.6956   -1.8879 H     1    ESP        -0.0019
      8 H           0.4263    2.0291   -1.8879 H     1    ESP        -0.0004
      8 H          -0.0292    2.1512   -1.8879 H     1    ESP         0.0008
      8 H          -0.4848    2.0291   -1.8879 H     1    ESP         0.0004
      8 H          -0.8183    1.6956   -1.8879 H     1    ESP        -0.0016
      8 H           0.4381    1.2400   -2.0432 H     1    ESP        -0.0052
      8 H           0.2044    1.6447   -2.0432 H     1    ESP        -0.0031
      8 H          -0.2629    1.6447   -2.0432 H     1    ESP        -0.0029
      8 H          -0.4965    1.2400   -2.0432 H     1    ESP        -0.0047
      8 H           0.2044    0.8353   -2.0432 H     1    ESP        -0.0074
      8 H          -0.0292    1.2400   -2.0959 H     1    ESP        -0.0052
      8 H           1.2420    0.7411    2.0969 H     1    ESP        -0.0052
      8 H           1.7093    0.7411    2.0442 H     1    ESP        -0.0039
      8 H           1.4757    1.1458    2.0442 H     1    ESP        -0.0019
      8 H           1.0084    1.1458    2.0442 H     1    ESP        -0.0037
      8 H           0.7747    0.7411    2.0442 H     1    ESP        -0.0068
      8 H           1.0084    0.3364    2.0442 H     1    ESP        -0.0087
      8 H           1.4757    0.3364    2.0442 H     1    ESP        -0.0079
      8 H           2.1532    0.7411    1.8889 H     1    ESP        -0.0026
      8 H           2.0311    1.1967    1.8889 H     1    ESP         0.0006
      8 H           1.6976    1.5302    1.8889 H     1    ESP         0.0014
      8 H           1.2420    1.6523    1.8889 H     1    ESP         0.0000
      8 H           0.4529    0.2855    1.8889 H     1    ESP        -0.0104
      8 H           2.0311    0.2855    1.8889 H     1    ESP        -0.0077
      8 H           2.5514    0.7411    1.6387 H     1    ESP        -0.0010
      8 H           2.4724    1.1889    1.6387 H     1    ESP         0.0029
      8 H           1.8967    1.8750    1.6387 H     1    ESP         0.0048
      8 H           1.4694    2.0306    1.6387 H     1    ESP         0.0035
      8 H           2.4724    0.2933    1.6387 H     1    ESP        -0.0067
      8 H           1.4757    2.3662    1.3062 H     1    ESP         0.0063
      8 H           2.8174    0.2786    1.3062 H     1    ESP        -0.0059
      8 H           1.4701    2.6194    0.9080 H     1    ESP         0.0090
      8 H           3.0791    0.2883    0.9080 H     1    ESP        -0.0046
      8 H           1.3557    2.8380   -0.0031 H     1    ESP         0.0121
      8 H           1.4701    2.6194   -0.9143 H     1    ESP         0.0089
      8 H           1.4757    2.3662   -1.3125 H     1    ESP         0.0063
      8 H           2.8174    0.2786   -1.3125 H     1    ESP        -0.0060
      8 H           2.5514    0.7411   -1.6450 H     1    ESP        -0.0011
      8 H           1.8967    1.8750   -1.6450 H     1    ESP         0.0048
      8 H           1.4694    2.0306   -1.6450 H     1    ESP         0.0035
      8 H           1.0147    2.0306   -1.6450 H     1    ESP         0.0015
      8 H           2.4724    0.2933   -1.6450 H     1    ESP        -0.0069
      8 H           2.1532    0.7411   -1.8952 H     1    ESP        -0.0027
      8 H           2.0311    1.1967   -1.8952 H     1    ESP         0.0006
      8 H           1.6976    1.5302   -1.8952 H     1    ESP         0.0014
      8 H           1.2420    1.6523   -1.8952 H     1    ESP         0.0000
      8 H           0.4529    0.2855   -1.8952 H     1    ESP        -0.0105
      8 H           2.0311    0.2855   -1.8952 H     1    ESP        -0.0078
      8 H           1.7093    0.7411   -2.0505 H     1    ESP        -0.0040
      8 H           1.4757    1.1458   -2.0505 H     1    ESP        -0.0019
      8 H           1.0084    1.1458   -2.0505 H     1    ESP        -0.0038
      8 H           0.7747    0.7411   -2.0505 H     1    ESP        -0.0068
      8 H           1.0084    0.3364   -2.0505 H     1    ESP        -0.0088
      8 H           1.4757    0.3364   -2.0505 H     1    ESP        -0.0081
      8 H           1.2420    0.7411   -2.1031 H     1    ESP        -0.0053
      8 H           1.3546   -0.6324    2.0912 H     1    ESP        -0.0121
      8 H           1.8219   -0.6324    2.0385 H     1    ESP        -0.0127
      8 H           1.5882   -0.2277    2.0385 H     1    ESP        -0.0119
      8 H           1.1209   -0.2277    2.0385 H     1    ESP        -0.0118
      8 H           0.8873   -0.6324    2.0385 H     1    ESP        -0.0112
      8 H           1.1209   -1.0371    2.0385 H     1    ESP        -0.0110
      8 H           1.5882   -1.0371    2.0385 H     1    ESP        -0.0124
      8 H           2.2657   -0.6324    1.8832 H     1    ESP        -0.0130
      8 H           2.1436   -0.1768    1.8832 H     1    ESP        -0.0116
      8 H           0.5655   -0.1768    1.8832 H     1    ESP        -0.0117
      8 H           1.3546   -1.5435    1.8832 H     1    ESP        -0.0105
      8 H           1.8101   -1.4215    1.8832 H     1    ESP        -0.0125
      8 H           2.1436   -1.0880    1.8832 H     1    ESP        -0.0134
      8 H           2.6639   -0.6324    1.6330 H     1    ESP        -0.0131
      8 H           2.5849   -0.1846    1.6330 H     1    ESP        -0.0113
      8 H           1.5819   -1.9218    1.6330 H     1    ESP        -0.0101
      8 H           2.0092   -1.7663    1.6330 H     1    ESP        -0.0125
      8 H           2.3576   -1.4740    1.6330 H     1    ESP        -0.0137
      8 H           2.5849   -1.0802    1.6330 H     1    ESP        -0.0139
      8 H           2.9964   -0.6324    1.3005 H     1    ESP        -0.0131
      8 H           2.9299   -0.1698    1.3005 H     1    ESP        -0.0108
      8 H           1.5882   -2.2575    1.3005 H     1    ESP        -0.0082
      8 H           2.0366   -2.1258    1.3005 H     1    ESP        -0.0116
      8 H           2.4297   -1.8732    1.3005 H     1    ESP        -0.0135
      8 H           2.7358   -1.5200    1.3005 H     1    ESP        -0.0143
      8 H           2.9299   -1.0949    1.3005 H     1    ESP        -0.0142
      8 H           3.2466   -0.6324    0.9023 H     1    ESP        -0.0130
      8 H           3.1916   -0.1796    0.9023 H     1    ESP        -0.0104
      8 H           1.5826   -2.5106    0.9023 H     1    ESP        -0.0058
      8 H           2.0255   -2.4015    0.9023 H     1    ESP        -0.0104
      8 H           2.4294   -2.1895    0.9023 H     1    ESP        -0.0129
      8 H           2.7708   -1.8870    0.9023 H     1    ESP        -0.0142
      8 H           3.0299   -1.5116    0.9023 H     1    ESP        -0.0146
      8 H           3.1916   -1.0852    0.9023 H     1    ESP        -0.0143
      8 H           3.4019   -0.6324    0.4584 H     1    ESP        -0.0129
      8 H           3.3506   -0.1768    0.4584 H     1    ESP        -0.0101
      8 H           1.8101   -2.6284    0.4584 H     1    ESP        -0.0070
      8 H           2.2429   -2.4770    0.4584 H     1    ESP        -0.0112
      8 H           2.6311   -2.2331    0.4584 H     1    ESP        -0.0134
      8 H           2.9552   -1.9089    0.4584 H     1    ESP        -0.0145
      8 H           3.1992   -1.5207    0.4584 H     1    ESP        -0.0148
      8 H           3.3506   -1.0880    0.4584 H     1    ESP        -0.0143
      8 H           3.4546   -0.6324   -0.0088 H     1    ESP        -0.0129
      8 H           3.4055   -0.1809   -0.0088 H     1    ESP        -0.0100
      8 H           1.9164   -2.6558   -0.0088 H     1    ESP        -0.0078
      8 H           2.3382   -2.4877   -0.0088 H     1    ESP        -0.0116
      8 H           2.7141   -2.2329   -0.0088 H     1    ESP        -0.0137
      8 H           3.0264   -1.9032   -0.0088 H     1    ESP        -0.0147
      8 H           3.2605   -1.5141   -0.0088 H     1    ESP        -0.0149
      8 H           3.4055   -1.0838   -0.0088 H     1    ESP        -0.0143
      8 H           3.4019   -0.6324   -0.4761 H     1    ESP        -0.0129
      8 H           3.3506   -0.1768   -0.4761 H     1    ESP        -0.0101
      8 H           1.8101   -2.6284   -0.4761 H     1    ESP        -0.0071
      8 H           2.2429   -2.4770   -0.4761 H     1    ESP        -0.0112
      8 H           2.6311   -2.2331   -0.4761 H     1    ESP        -0.0135
      8 H           2.9552   -1.9089   -0.4761 H     1    ESP        -0.0146
      8 H           3.1992   -1.5207   -0.4761 H     1    ESP        -0.0148
      8 H           3.3506   -1.0880   -0.4761 H     1    ESP        -0.0143
      8 H           3.2466   -0.6324   -0.9200 H     1    ESP        -0.0130
      8 H           3.1916   -0.1796   -0.9200 H     1    ESP        -0.0105
      8 H           1.5826   -2.5106   -0.9200 H     1    ESP        -0.0058
      8 H           2.0255   -2.4015   -0.9200 H     1    ESP        -0.0104
      8 H           2.4294   -2.1895   -0.9200 H     1    ESP        -0.0129
      8 H           2.7708   -1.8870   -0.9200 H     1    ESP        -0.0142
      8 H           3.0299   -1.5116   -0.9200 H     1    ESP        -0.0147
      8 H           3.1916   -1.0852   -0.9200 H     1    ESP        -0.0143
      8 H           2.9964   -0.6324   -1.3182 H     1    ESP        -0.0131
      8 H           2.9299   -0.1698   -1.3182 H     1    ESP        -0.0108
      8 H           1.5882   -2.2575   -1.3182 H     1    ESP        -0.0082
      8 H           2.0366   -2.1258   -1.3182 H     1    ESP        -0.0116
      8 H           2.4297   -1.8732   -1.3182 H     1    ESP        -0.0135
      8 H           2.7358   -1.5200   -1.3182 H     1    ESP        -0.0143
      8 H           2.9299   -1.0949   -1.3182 H     1    ESP        -0.0142
      8 H           2.6639   -0.6324   -1.6507 H     1    ESP        -0.0131
      8 H           2.5849   -0.1846   -1.6507 H     1    ESP        -0.0113
      8 H           1.5819   -1.9218   -1.6507 H     1    ESP        -0.0102
      8 H           2.0092   -1.7663   -1.6507 H     1    ESP        -0.0125
      8 H           2.3576   -1.4740   -1.6507 H     1    ESP        -0.0137
      8 H           2.5849   -1.0802   -1.6507 H     1    ESP        -0.0139
      8 H           2.2657   -0.6324   -1.9009 H     1    ESP        -0.0130
      8 H           2.1436   -0.1768   -1.9009 H     1    ESP        -0.0116
      8 H           0.5655   -0.1768   -1.9009 H     1    ESP        -0.0117
      8 H           1.3546   -1.5435   -1.9009 H     1    ESP        -0.0105
      8 H           1.8101   -1.4215   -1.9009 H     1    ESP        -0.0125
      8 H           2.1436   -1.0880   -1.9009 H     1    ESP        -0.0134
      8 H           1.8219   -0.6324   -2.0562 H     1    ESP        -0.0127
      8 H           1.5882   -0.2277   -2.0562 H     1    ESP        -0.0119
      8 H           1.1209   -0.2277   -2.0562 H     1    ESP        -0.0118
      8 H           0.8873   -0.6324   -2.0562 H     1    ESP        -0.0112
      8 H           1.1209   -1.0371   -2.0562 H     1    ESP        -0.0111
      8 H           1.5882   -1.0371   -2.0562 H     1    ESP        -0.0124
      8 H           1.3546   -0.6324   -2.1088 H     1    ESP        -0.0122
      8 H           0.1769   -1.1831    2.0948 H     1    ESP        -0.0030
      8 H           0.6441   -1.1831    2.0421 H     1    ESP        -0.0067
      8 H           0.4105   -0.7784    2.0421 H     1    ESP        -0.0072
      8 H          -0.2904   -1.1831    2.0421 H     1    ESP        -0.0004
      8 H          -0.0568   -1.5878    2.0421 H     1    ESP         0.0007
      8 H           0.4105   -1.5878    2.0421 H     1    ESP        -0.0022
      8 H          -0.6122   -1.6387    1.8868 H     1    ESP         0.0036
      8 H          -0.2787   -1.9722    1.8868 H     1    ESP         0.0043
      8 H           0.1769   -2.0943    1.8868 H     1    ESP         0.0029
      8 H           0.6324   -1.9722    1.8868 H     1    ESP        -0.0011
      8 H           0.9659   -1.6387    1.8868 H     1    ESP        -0.0068
      8 H          -0.8261   -2.0248    1.6366 H     1    ESP         0.0071
      8 H          -0.4778   -2.3170    1.6366 H     1    ESP         0.0083
      8 H           0.4042   -2.4726    1.6366 H     1    ESP         0.0052
      8 H           0.8315   -2.3170    1.6366 H     1    ESP         0.0004
      8 H           1.1799   -2.0248    1.6366 H     1    ESP        -0.0060
      8 H           1.2520   -2.4240    1.3041 H     1    ESP        -0.0026
      8 H           1.2520   -2.4240   -1.3146 H     1    ESP        -0.0027
      8 H          -0.8261   -2.0248   -1.6471 H     1    ESP         0.0071
      8 H          -0.4778   -2.3170   -1.6471 H     1    ESP         0.0084
      8 H           0.4042   -2.4726   -1.6471 H     1    ESP         0.0053
      8 H           0.8315   -2.3170   -1.6471 H     1    ESP         0.0004
      8 H           1.1799   -2.0248   -1.6471 H     1    ESP        -0.0060
      8 H          -0.6122   -1.6387   -1.8973 H     1    ESP         0.0036
      8 H          -0.2787   -1.9722   -1.8973 H     1    ESP         0.0044
      8 H           0.1769   -2.0943   -1.8973 H     1    ESP         0.0029
      8 H           0.6324   -1.9722   -1.8973 H     1    ESP        -0.0011
      8 H           0.9659   -1.6387   -1.8973 H     1    ESP        -0.0069
      8 H           0.6441   -1.1831   -2.0526 H     1    ESP        -0.0068
      8 H           0.4105   -0.7784   -2.0526 H     1    ESP        -0.0073
      8 H          -0.2904   -1.1831   -2.0526 H     1    ESP        -0.0004
      8 H          -0.0568   -1.5878   -2.0526 H     1    ESP         0.0007
      8 H           0.4105   -1.5878   -2.0526 H     1    ESP        -0.0022
      8 H           0.1769   -1.1831   -2.1052 H     1    ESP        -0.0031
      8 H          -1.1716   -0.0655    2.4556 H     1    ESP        -0.0015
      8 H          -0.7214   -0.0655    2.4139 H     1    ESP        -0.0026
      8 H          -0.9465    0.3244    2.4139 H     1    ESP        -0.0025
      8 H          -1.3967    0.3244    2.4139 H     1    ESP        -0.0015
      8 H          -1.6218   -0.0655    2.4139 H     1    ESP        -0.0007
      8 H          -1.3967   -0.4554    2.4139 H     1    ESP        -0.0005
      8 H          -0.9465   -0.4554    2.4139 H     1    ESP        -0.0013
      8 H          -0.2866   -0.0655    2.2902 H     1    ESP        -0.0044
      8 H          -0.4051    0.3770    2.2902 H     1    ESP        -0.0046
      8 H          -0.7291    0.7010    2.2902 H     1    ESP        -0.0037
      8 H          -1.1716    0.8195    2.2902 H     1    ESP        -0.0023
      8 H          -1.6141    0.7010    2.2902 H     1    ESP        -0.0013
      8 H          -1.9381    0.3770    2.2902 H     1    ESP        -0.0007
      8 H          -2.0567   -0.0655    2.2902 H     1    ESP        -0.0002
      8 H          -1.9381   -0.5080    2.2902 H     1    ESP         0.0002
      8 H          -1.6141   -0.8320    2.2902 H     1    ESP         0.0004
      8 H          -1.1716   -0.9505    2.2902 H     1    ESP         0.0003
      8 H          -0.7291   -0.8320    2.2902 H     1    ESP        -0.0008
      8 H          -0.4051   -0.5080    2.2902 H     1    ESP        -0.0028
      8 H           0.1181   -0.0655    2.0887 H     1    ESP        -0.0072
      8 H           0.0311    0.4004    2.0887 H     1    ESP        -0.0073
      8 H          -0.2185    0.8034    2.0887 H     1    ESP        -0.0064
      8 H          -0.5967    1.0891    2.0887 H     1    ESP        -0.0046
      8 H          -1.0526    1.2188    2.0887 H     1    ESP        -0.0026
      8 H          -1.5246    1.1750    2.0887 H     1    ESP        -0.0014
      8 H          -1.9489    0.9638    2.0887 H     1    ESP        -0.0007
      8 H          -2.2682    0.6135    2.0887 H     1    ESP        -0.0003
      8 H          -2.4394    0.1715    2.0887 H     1    ESP         0.0000
      8 H          -2.4394   -0.3025    2.0887 H     1    ESP         0.0003
      8 H          -2.2682   -0.7445    2.0887 H     1    ESP         0.0007
      8 H          -1.9489   -1.0947    2.0887 H     1    ESP         0.0012
      8 H          -1.5246   -1.3060    2.0887 H     1    ESP         0.0017
      8 H          -1.0526   -1.3498    2.0887 H     1    ESP         0.0018
      8 H          -0.5967   -1.2200    2.0887 H     1    ESP         0.0007
      8 H          -0.2185   -0.9344    2.0887 H     1    ESP        -0.0021
      8 H           0.0311   -0.5314    2.0887 H     1    ESP        -0.0054
      8 H           0.4789   -0.0655    1.8162 H     1    ESP        -0.0120
      8 H          -1.4065    1.5683    1.8162 H     1    ESP        -0.0008
      8 H          -1.8573    1.4359    1.8162 H     1    ESP        -0.0003
      8 H          -2.2525    1.1819    1.8162 H     1    ESP        -0.0002
      8 H          -2.5601    0.8269    1.8162 H     1    ESP        -0.0000
      8 H          -2.7553    0.3995    1.8162 H     1    ESP         0.0002
      8 H          -2.8222   -0.0655    1.8162 H     1    ESP         0.0004
      8 H          -2.7553   -0.5305    1.8162 H     1    ESP         0.0007
      8 H          -2.5601   -0.9579    1.8162 H     1    ESP         0.0012
      8 H          -2.2525   -1.3129    1.8162 H     1    ESP         0.0018
      8 H          -1.8573   -1.5669    1.8162 H     1    ESP         0.0026
      8 H          -1.4065   -1.6992    1.8162 H     1    ESP         0.0036
      8 H          -0.9367   -1.6992    1.8162 H     1    ESP         0.0043
      8 H          -1.7324    1.8075    1.4821 H     1    ESP         0.0012
      8 H          -2.1492    1.6277    1.4821 H     1    ESP         0.0006
      8 H          -2.5133    1.3566    1.4821 H     1    ESP         0.0003
      8 H          -2.8051    1.0089    1.4821 H     1    ESP         0.0003
      8 H          -3.0088    0.6032    1.4821 H     1    ESP         0.0003
      8 H          -3.1135    0.1615    1.4821 H     1    ESP         0.0005
      8 H          -3.1135   -0.2925    1.4821 H     1    ESP         0.0007
      8 H          -3.0088   -0.7342    1.4821 H     1    ESP         0.0010
      8 H          -2.8051   -1.1399    1.4821 H     1    ESP         0.0015
      8 H          -2.5133   -1.4876    1.4821 H     1    ESP         0.0022
      8 H          -2.1492   -1.7587    1.4821 H     1    ESP         0.0031
      8 H          -1.7324   -1.9385    1.4821 H     1    ESP         0.0046
      8 H          -1.2853   -2.0173    1.4821 H     1    ESP         0.0067
      8 H          -1.8493    2.0203    1.0977 H     1    ESP         0.0035
      8 H          -2.2682    1.8338    1.0977 H     1    ESP         0.0017
      8 H          -2.6391    1.5643    1.0977 H     1    ESP         0.0008
      8 H          -2.9459    1.2236    1.0977 H     1    ESP         0.0005
      8 H          -3.1752    0.8265    1.0977 H     1    ESP         0.0005
      8 H          -3.3168    0.3905    1.0977 H     1    ESP         0.0005
      8 H          -3.3648   -0.0655    1.0977 H     1    ESP         0.0007
      8 H          -3.3168   -0.5215    1.0977 H     1    ESP         0.0010
      8 H          -3.1752   -0.9575    1.0977 H     1    ESP         0.0013
      8 H          -2.9459   -1.3546    1.0977 H     1    ESP         0.0019
      8 H          -2.6391   -1.6953    1.0977 H     1    ESP         0.0026
      8 H          -2.2682   -1.9648    1.0977 H     1    ESP         0.0039
      8 H          -1.8493   -2.1513    1.0977 H     1    ESP         0.0059
      8 H          -1.4009   -2.2466    1.0977 H     1    ESP         0.0094
      8 H          -2.0734    2.1116    0.6761 H     1    ESP         0.0045
      8 H          -2.4808    1.8938    0.6761 H     1    ESP         0.0021
      8 H          -2.8379    1.6008    0.6761 H     1    ESP         0.0011
      8 H          -3.1309    1.2437    0.6761 H     1    ESP         0.0007
      8 H          -3.3487    0.8363    0.6761 H     1    ESP         0.0006
      8 H          -3.4828    0.3942    0.6761 H     1    ESP         0.0006
      8 H          -3.5281   -0.0655    0.6761 H     1    ESP         0.0008
      8 H          -3.4828   -0.5252    0.6761 H     1    ESP         0.0010
      8 H          -3.3487   -0.9673    0.6761 H     1    ESP         0.0014
      8 H          -3.1309   -1.3747    0.6761 H     1    ESP         0.0019
      8 H          -2.8379   -1.7318    0.6761 H     1    ESP         0.0027
      8 H          -2.4808   -2.0248    0.6761 H     1    ESP         0.0039
      8 H          -2.0734   -2.2426    0.6761 H     1    ESP         0.0060
      8 H          -1.6313   -2.3767    0.6761 H     1    ESP         0.0099
      8 H          -2.3914    2.0472    0.2317 H     1    ESP         0.0033
      8 H          -2.7692    1.7782    0.2317 H     1    ESP         0.0016
      8 H          -3.0892    1.4425    0.2317 H     1    ESP         0.0009
      8 H          -3.3400    1.0524    0.2317 H     1    ESP         0.0007
      8 H          -3.5123    0.6218    0.2317 H     1    ESP         0.0006
      8 H          -3.6001    0.1664    0.2317 H     1    ESP         0.0007
      8 H          -3.6001   -0.2974    0.2317 H     1    ESP         0.0009
      8 H          -3.5123   -0.7528    0.2317 H     1    ESP         0.0012
      8 H          -3.3400   -1.1834    0.2317 H     1    ESP         0.0016
      8 H          -3.0892   -1.5735    0.2317 H     1    ESP         0.0022
      8 H          -2.7692   -1.9092    0.2317 H     1    ESP         0.0032
      8 H          -2.3914   -2.1782    0.2317 H     1    ESP         0.0048
      8 H          -1.9695   -2.3709    0.2317 H     1    ESP         0.0077
      8 H          -2.3914    2.0472   -0.2204 H     1    ESP         0.0032
      8 H          -2.7692    1.7782   -0.2204 H     1    ESP         0.0016
      8 H          -3.0892    1.4425   -0.2204 H     1    ESP         0.0009
      8 H          -3.3400    1.0524   -0.2204 H     1    ESP         0.0007
      8 H          -3.5123    0.6218   -0.2204 H     1    ESP         0.0006
      8 H          -3.6001    0.1664   -0.2204 H     1    ESP         0.0007
      8 H          -3.6001   -0.2974   -0.2204 H     1    ESP         0.0009
      8 H          -3.5123   -0.7528   -0.2204 H     1    ESP         0.0012
      8 H          -3.3400   -1.1834   -0.2204 H     1    ESP         0.0016
      8 H          -3.0892   -1.5735   -0.2204 H     1    ESP         0.0022
      8 H          -2.7692   -1.9092   -0.2204 H     1    ESP         0.0032
      8 H          -2.3914   -2.1782   -0.2204 H     1    ESP         0.0048
      8 H          -1.9695   -2.3709   -0.2204 H     1    ESP         0.0077
      8 H          -2.0734    2.1116   -0.6649 H     1    ESP         0.0044
      8 H          -2.4808    1.8938   -0.6649 H     1    ESP         0.0020
      8 H          -2.8379    1.6008   -0.6649 H     1    ESP         0.0010
      8 H          -3.1309    1.2437   -0.6649 H     1    ESP         0.0007
      8 H          -3.3487    0.8363   -0.6649 H     1    ESP         0.0006
      8 H          -3.4828    0.3942   -0.6649 H     1    ESP         0.0006
      8 H          -3.5281   -0.0655   -0.6649 H     1    ESP         0.0008
      8 H          -3.4828   -0.5252   -0.6649 H     1    ESP         0.0010
      8 H          -3.3487   -0.9673   -0.6649 H     1    ESP         0.0014
      8 H          -3.1309   -1.3747   -0.6649 H     1    ESP         0.0019
      8 H          -2.8379   -1.7318   -0.6649 H     1    ESP         0.0027
      8 H          -2.4808   -2.0248   -0.6649 H     1    ESP         0.0039
      8 H          -2.0734   -2.2426   -0.6649 H     1    ESP         0.0061
      8 H          -1.6313   -2.3767   -0.6649 H     1    ESP         0.0101
      8 H          -1.8493    2.0203   -1.0864 H     1    ESP         0.0034
      8 H          -2.2682    1.8338   -1.0864 H     1    ESP         0.0016
      8 H          -2.6391    1.5643   -1.0864 H     1    ESP         0.0008
      8 H          -2.9459    1.2236   -1.0864 H     1    ESP         0.0005
      8 H          -3.1752    0.8265   -1.0864 H     1    ESP         0.0005
      8 H          -3.3168    0.3905   -1.0864 H     1    ESP         0.0005
      8 H          -3.3648   -0.0655   -1.0864 H     1    ESP         0.0007
      8 H          -3.3168   -0.5215   -1.0864 H     1    ESP         0.0010
      8 H          -3.1752   -0.9575   -1.0864 H     1    ESP         0.0013
      8 H          -2.9459   -1.3546   -1.0864 H     1    ESP         0.0019
      8 H          -2.6391   -1.6953   -1.0864 H     1    ESP         0.0027
      8 H          -2.2682   -1.9648   -1.0864 H     1    ESP         0.0039
      8 H          -1.8493   -2.1513   -1.0864 H     1    ESP         0.0060
      8 H          -1.4009   -2.2466   -1.0864 H     1    ESP         0.0096
      8 H          -1.7324    1.8075   -1.4708 H     1    ESP         0.0011
      8 H          -2.1492    1.6277   -1.4708 H     1    ESP         0.0006
      8 H          -2.5133    1.3566   -1.4708 H     1    ESP         0.0003
      8 H          -2.8051    1.0089   -1.4708 H     1    ESP         0.0003
      8 H          -3.0088    0.6032   -1.4708 H     1    ESP         0.0003
      8 H          -3.1135    0.1615   -1.4708 H     1    ESP         0.0005
      8 H          -3.1135   -0.2925   -1.4708 H     1    ESP         0.0007
      8 H          -3.0088   -0.7342   -1.4708 H     1    ESP         0.0011
      8 H          -2.8051   -1.1399   -1.4708 H     1    ESP         0.0015
      8 H          -2.5133   -1.4876   -1.4708 H     1    ESP         0.0022
      8 H          -2.1492   -1.7587   -1.4708 H     1    ESP         0.0032
      8 H          -1.7324   -1.9385   -1.4708 H     1    ESP         0.0047
      8 H          -1.2853   -2.0173   -1.4708 H     1    ESP         0.0069
      8 H          -1.4065    1.5683   -1.8050 H     1    ESP        -0.0009
      8 H          -1.8573    1.4359   -1.8050 H     1    ESP        -0.0004
      8 H          -2.2525    1.1819   -1.8050 H     1    ESP        -0.0002
      8 H          -2.5601    0.8269   -1.8050 H     1    ESP        -0.0000
      8 H          -2.7553    0.3995   -1.8050 H     1    ESP         0.0002
      8 H          -2.8222   -0.0655   -1.8050 H     1    ESP         0.0004
      8 H          -2.7553   -0.5305   -1.8050 H     1    ESP         0.0007
      8 H          -2.5601   -0.9579   -1.8050 H     1    ESP         0.0012
      8 H          -2.2525   -1.3129   -1.8050 H     1    ESP         0.0018
      8 H          -1.8573   -1.5669   -1.8050 H     1    ESP         0.0026
      8 H          -1.4065   -1.6992   -1.8050 H     1    ESP         0.0037
      8 H          -0.9367   -1.6992   -1.8050 H     1    ESP         0.0045
      8 H           0.1181   -0.0655   -2.0774 H     1    ESP        -0.0074
      8 H           0.0311    0.4004   -2.0774 H     1    ESP        -0.0075
      8 H          -0.2185    0.8034   -2.0774 H     1    ESP        -0.0066
      8 H          -0.5967    1.0891   -2.0774 H     1    ESP        -0.0047
      8 H          -1.0526    1.2188   -2.0774 H     1    ESP        -0.0027
      8 H          -1.5246    1.1750   -2.0774 H     1    ESP        -0.0014
      8 H          -1.9489    0.9638   -2.0774 H     1    ESP        -0.0008
      8 H          -2.2682    0.6135   -2.0774 H     1    ESP        -0.0003
      8 H          -2.4394    0.1715   -2.0774 H     1    ESP        -0.0000
      8 H          -2.4394   -0.3025   -2.0774 H     1    ESP         0.0003
      8 H          -2.2682   -0.7445   -2.0774 H     1    ESP         0.0007
      8 H          -1.9489   -1.0947   -2.0774 H     1    ESP         0.0012
      8 H          -1.5246   -1.3060   -2.0774 H     1    ESP         0.0017
      8 H          -1.0526   -1.3498   -2.0774 H     1    ESP         0.0018
      8 H          -0.5967   -1.2200   -2.0774 H     1    ESP         0.0007
      8 H          -0.2185   -0.9344   -2.0774 H     1    ESP        -0.0021
      8 H           0.0311   -0.5314   -2.0774 H     1    ESP        -0.0055
      8 H          -0.2866   -0.0655   -2.2789 H     1    ESP        -0.0045
      8 H          -0.4051    0.3770   -2.2789 H     1    ESP        -0.0047
      8 H          -0.7291    0.7010   -2.2789 H     1    ESP        -0.0038
      8 H          -1.1716    0.8195   -2.2789 H     1    ESP        -0.0024
      8 H          -1.6141    0.7010   -2.2789 H     1    ESP        -0.0013
      8 H          -1.9381    0.3770   -2.2789 H     1    ESP        -0.0007
      8 H          -2.0567   -0.0655   -2.2789 H     1    ESP        -0.0002
      8 H          -1.9381   -0.5080   -2.2789 H     1    ESP         0.0002
      8 H          -1.6141   -0.8320   -2.2789 H     1    ESP         0.0004
      8 H          -1.1716   -0.9505   -2.2789 H     1    ESP         0.0003
      8 H          -0.7291   -0.8320   -2.2789 H     1    ESP        -0.0008
      8 H          -0.4051   -0.5080   -2.2789 H     1    ESP        -0.0029
      8 H          -0.7214   -0.0655   -2.4027 H     1    ESP        -0.0027
      8 H          -0.9465    0.3244   -2.4027 H     1    ESP        -0.0026
      8 H          -1.3967    0.3244   -2.4027 H     1    ESP        -0.0015
      8 H          -1.6218   -0.0655   -2.4027 H     1    ESP        -0.0008
      8 H          -1.3967   -0.4554   -2.4027 H     1    ESP        -0.0005
      8 H          -0.9465   -0.4554   -2.4027 H     1    ESP        -0.0013
      8 H          -1.1716   -0.0655   -2.4444 H     1    ESP        -0.0015
      8 H          -0.1123    2.6828    1.6209 H     1    ESP         0.0069
      8 H          -0.5856    2.6828    1.6209 H     1    ESP         0.0074
      8 H           0.4377    2.7271    1.4223 H     1    ESP         0.0073
      8 H           0.1052    3.0595    1.4223 H     1    ESP         0.0092
      8 H          -0.3489    3.1812    1.4223 H     1    ESP         0.0099
      8 H          -0.8031    3.0595    1.4223 H     1    ESP         0.0096
      8 H          -1.1355    2.7271    1.4223 H     1    ESP         0.0083
      8 H          -1.2572    2.2729    1.4223 H     1    ESP         0.0057
      8 H           0.5894    3.1283    1.1092 H     1    ESP         0.0100
      8 H           0.2170    3.4095    1.1092 H     1    ESP         0.0108
      8 H          -0.2318    3.5372    1.1092 H     1    ESP         0.0113
      8 H          -0.6964    3.4941    1.1092 H     1    ESP         0.0113
      8 H          -1.1141    3.2862    1.1092 H     1    ESP         0.0108
      8 H          -1.4284    2.9413    1.1092 H     1    ESP         0.0097
      8 H          -1.5970    2.5062    1.1092 H     1    ESP         0.0078
      8 H           0.8874    3.1712    0.7069 H     1    ESP         0.0110
      8 H           0.5493    3.5093    0.7069 H     1    ESP         0.0115
      8 H           0.1233    3.7263    0.7069 H     1    ESP         0.0119
      8 H          -0.3489    3.8011    0.7069 H     1    ESP         0.0121
      8 H          -0.8212    3.7263    0.7069 H     1    ESP         0.0120
      8 H          -1.2472    3.5093    0.7069 H     1    ESP         0.0116
      8 H          -1.5852    3.1712    0.7069 H     1    ESP         0.0107
      8 H          -1.8023    2.7452    0.7069 H     1    ESP         0.0093
      8 H          -1.8771    2.2729    0.7069 H     1    ESP         0.0070
      8 H           1.0500    3.1720    0.2481 H     1    ESP         0.0118
      8 H           0.7400    3.5297    0.2481 H     1    ESP         0.0119
      8 H           0.3419    3.7856    0.2481 H     1    ESP         0.0122
      8 H          -0.1123    3.9189    0.2481 H     1    ESP         0.0125
      8 H          -0.5856    3.9189    0.2481 H     1    ESP         0.0125
      8 H          -1.0397    3.7856    0.2481 H     1    ESP         0.0123
      8 H          -1.4379    3.5297    0.2481 H     1    ESP         0.0118
      8 H          -1.7478    3.1720    0.2481 H     1    ESP         0.0109
      8 H          -1.9445    2.7414    0.2481 H     1    ESP         0.0095
      8 H          -2.0118    2.2729    0.2481 H     1    ESP         0.0073
      8 H           1.0500    3.1720   -0.2301 H     1    ESP         0.0118
      8 H           0.7400    3.5297   -0.2301 H     1    ESP         0.0119
      8 H           0.3419    3.7856   -0.2301 H     1    ESP         0.0122
      8 H          -0.1123    3.9189   -0.2301 H     1    ESP         0.0125
      8 H          -0.5856    3.9189   -0.2301 H     1    ESP         0.0125
      8 H          -1.0397    3.7856   -0.2301 H     1    ESP         0.0123
      8 H          -1.4379    3.5297   -0.2301 H     1    ESP         0.0118
      8 H          -1.7478    3.1720   -0.2301 H     1    ESP         0.0109
      8 H          -1.9445    2.7414   -0.2301 H     1    ESP         0.0095
      8 H          -2.0118    2.2729   -0.2301 H     1    ESP         0.0073
      8 H           0.8874    3.1712   -0.6889 H     1    ESP         0.0110
      8 H           0.5493    3.5093   -0.6889 H     1    ESP         0.0115
      8 H           0.1233    3.7263   -0.6889 H     1    ESP         0.0119
      8 H          -0.3489    3.8011   -0.6889 H     1    ESP         0.0121
      8 H          -0.8212    3.7263   -0.6889 H     1    ESP         0.0120
      8 H          -1.2472    3.5093   -0.6889 H     1    ESP         0.0116
      8 H          -1.5852    3.1712   -0.6889 H     1    ESP         0.0107
      8 H          -1.8023    2.7452   -0.6889 H     1    ESP         0.0093
      8 H          -1.8771    2.2729   -0.6889 H     1    ESP         0.0070
      8 H           0.5894    3.1283   -1.0912 H     1    ESP         0.0099
      8 H           0.2170    3.4095   -1.0912 H     1    ESP         0.0108
      8 H          -0.2318    3.5372   -1.0912 H     1    ESP         0.0112
      8 H          -0.6964    3.4941   -1.0912 H     1    ESP         0.0112
      8 H          -1.1141    3.2862   -1.0912 H     1    ESP         0.0107
      8 H          -1.4284    2.9413   -1.0912 H     1    ESP         0.0097
      8 H          -1.5970    2.5062   -1.0912 H     1    ESP         0.0078
      8 H           0.4377    2.7271   -1.4043 H     1    ESP         0.0073
      8 H           0.1052    3.0595   -1.4043 H     1    ESP         0.0091
      8 H          -0.3489    3.1812   -1.4043 H     1    ESP         0.0098
      8 H          -0.8031    3.0595   -1.4043 H     1    ESP         0.0096
      8 H          -1.1355    2.7271   -1.4043 H     1    ESP         0.0083
      8 H          -1.2572    2.2729   -1.4043 H     1    ESP         0.0056
      8 H          -0.1123    2.6828   -1.6030 H     1    ESP         0.0068
      8 H          -0.5856    2.6828   -1.6030 H     1    ESP         0.0073
      8 H           2.6166    1.3433    1.6067 H     1    ESP         0.0039
      8 H           2.3800    1.7532    1.6067 H     1    ESP         0.0054
      8 H           3.0516    1.3433    1.4081 H     1    ESP         0.0042
      8 H           2.9299    1.7975    1.4081 H     1    ESP         0.0057
      8 H           2.5975    2.1299    1.4081 H     1    ESP         0.0066
      8 H           2.1433    2.2516    1.4081 H     1    ESP         0.0069
      8 H           2.9299    0.8892    1.4081 H     1    ESP         0.0017
      8 H           3.4130    1.3433    1.0949 H     1    ESP         0.0045
      8 H           3.3273    1.8020    1.0949 H     1    ESP         0.0059
      8 H           3.0816    2.1987    1.0949 H     1    ESP         0.0067
      8 H           2.7093    2.4799    1.0949 H     1    ESP         0.0074
      8 H           2.2605    2.6076    1.0949 H     1    ESP         0.0079
      8 H           1.7959    2.5645    1.0949 H     1    ESP         0.0082
      8 H           3.0816    0.4880    1.0949 H     1    ESP        -0.0017
      8 H           3.3273    0.8847    1.0949 H     1    ESP         0.0022
      8 H           3.6715    1.3433    0.6926 H     1    ESP         0.0046
      8 H           3.5967    1.8156    0.6926 H     1    ESP         0.0060
      8 H           3.3797    2.2416    0.6926 H     1    ESP         0.0068
      8 H           3.0416    2.5797    0.6926 H     1    ESP         0.0075
      8 H           2.6156    2.7967    0.6926 H     1    ESP         0.0081
      8 H           2.1433    2.8715    0.6926 H     1    ESP         0.0087
      8 H           1.6711    2.7967    0.6926 H     1    ESP         0.0096
      8 H           3.3797    0.4451    0.6926 H     1    ESP        -0.0013
      8 H           3.5967    0.8711    0.6926 H     1    ESP         0.0025
      8 H           3.8062    1.3433    0.2338 H     1    ESP         0.0047
      8 H           3.7389    1.8118    0.2338 H     1    ESP         0.0060
      8 H           3.5423    2.2424    0.2338 H     1    ESP         0.0068
      8 H           3.2323    2.6001    0.2338 H     1    ESP         0.0075
      8 H           2.8341    2.8560    0.2338 H     1    ESP         0.0081
      8 H           2.3800    2.9893    0.2338 H     1    ESP         0.0087
      8 H           1.9067    2.9893    0.2338 H     1    ESP         0.0097
      8 H           1.4525    2.8560    0.2338 H     1    ESP         0.0114
      8 H           3.5423    0.4443    0.2338 H     1    ESP        -0.0009
      8 H           3.7389    0.8748    0.2338 H     1    ESP         0.0027
      8 H           3.8062    1.3433   -0.2443 H     1    ESP         0.0047
      8 H           3.7389    1.8118   -0.2443 H     1    ESP         0.0060
      8 H           3.5423    2.2424   -0.2443 H     1    ESP         0.0068
      8 H           3.2323    2.6001   -0.2443 H     1    ESP         0.0075
      8 H           2.8341    2.8560   -0.2443 H     1    ESP         0.0081
      8 H           2.3800    2.9893   -0.2443 H     1    ESP         0.0087
      8 H           1.9067    2.9893   -0.2443 H     1    ESP         0.0097
      8 H           1.4525    2.8560   -0.2443 H     1    ESP         0.0114
      8 H           3.5423    0.4443   -0.2443 H     1    ESP        -0.0009
      8 H           3.7389    0.8748   -0.2443 H     1    ESP         0.0027
      8 H           3.6715    1.3433   -0.7031 H     1    ESP         0.0046
      8 H           3.5967    1.8156   -0.7031 H     1    ESP         0.0059
      8 H           3.3797    2.2416   -0.7031 H     1    ESP         0.0068
      8 H           3.0416    2.5797   -0.7031 H     1    ESP         0.0075
      8 H           2.6156    2.7967   -0.7031 H     1    ESP         0.0081
      8 H           2.1433    2.8715   -0.7031 H     1    ESP         0.0087
      8 H           1.6711    2.7967   -0.7031 H     1    ESP         0.0096
      8 H           3.3797    0.4451   -0.7031 H     1    ESP        -0.0014
      8 H           3.5967    0.8711   -0.7031 H     1    ESP         0.0025
      8 H           3.4130    1.3433   -1.1054 H     1    ESP         0.0044
      8 H           3.3273    1.8020   -1.1054 H     1    ESP         0.0058
      8 H           3.0816    2.1987   -1.1054 H     1    ESP         0.0067
      8 H           2.7093    2.4799   -1.1054 H     1    ESP         0.0073
      8 H           2.2605    2.6076   -1.1054 H     1    ESP         0.0078
      8 H           1.7959    2.5645   -1.1054 H     1    ESP         0.0082
      8 H           3.0816    0.4880   -1.1054 H     1    ESP        -0.0018
      8 H           3.3273    0.8847   -1.1054 H     1    ESP         0.0022
      8 H           3.0516    1.3433   -1.4186 H     1    ESP         0.0042
      8 H           2.9299    1.7975   -1.4186 H     1    ESP         0.0057
      8 H           2.5975    2.1299   -1.4186 H     1    ESP         0.0065
      8 H           2.1433    2.2516   -1.4186 H     1    ESP         0.0069
      8 H           2.9299    0.8892   -1.4186 H     1    ESP         0.0016
      8 H           2.6166    1.3433   -1.6172 H     1    ESP         0.0039
      8 H           2.3800    1.7532   -1.6172 H     1    ESP         0.0054
      8 H          -0.2301   -2.6637    1.6036 H     1    ESP         0.0085
      8 H           0.2432   -2.6637    1.6036 H     1    ESP         0.0069
      8 H          -0.7801   -2.7079    1.4049 H     1    ESP         0.0099
      8 H          -0.4476   -3.0404    1.4049 H     1    ESP         0.0095
      8 H           0.0065   -3.1621    1.4049 H     1    ESP         0.0086
      8 H           0.4606   -3.0404    1.4049 H     1    ESP         0.0070
      8 H           0.7931   -2.7079    1.4049 H     1    ESP         0.0043
      8 H          -1.2415   -2.4871    1.0918 H     1    ESP         0.0108
      8 H          -1.0730   -2.9222    1.0918 H     1    ESP         0.0105
      8 H          -0.7586   -3.2670    1.0918 H     1    ESP         0.0102
      8 H          -0.3410   -3.4750    1.0918 H     1    ESP         0.0096
      8 H           0.1237   -3.5181    1.0918 H     1    ESP         0.0088
      8 H           0.5724   -3.3904    1.0918 H     1    ESP         0.0075
      8 H           0.9448   -3.1092    1.0918 H     1    ESP         0.0053
      8 H           1.1904   -2.7125    1.0918 H     1    ESP         0.0014
      8 H          -1.4469   -2.7260    0.6895 H     1    ESP         0.0111
      8 H          -1.2298   -3.1521    0.6895 H     1    ESP         0.0108
      8 H          -0.8917   -3.4901    0.6895 H     1    ESP         0.0104
      8 H          -0.4657   -3.7072    0.6895 H     1    ESP         0.0100
      8 H           0.0065   -3.7820    0.6895 H     1    ESP         0.0093
      8 H           0.4787   -3.7072    0.6895 H     1    ESP         0.0083
      8 H           0.9047   -3.4901    0.6895 H     1    ESP         0.0067
      8 H           1.2428   -3.1521    0.6895 H     1    ESP         0.0039
      8 H           1.4599   -2.7260    0.6895 H     1    ESP        -0.0012
      8 H          -1.5890   -2.7223    0.2307 H     1    ESP         0.0113
      8 H          -1.3924   -3.1528    0.2307 H     1    ESP         0.0110
      8 H          -1.0825   -3.5105    0.2307 H     1    ESP         0.0107
      8 H          -0.6843   -3.7664    0.2307 H     1    ESP         0.0103
      8 H          -0.2301   -3.8998    0.2307 H     1    ESP         0.0098
      8 H           0.2432   -3.8998    0.2307 H     1    ESP         0.0090
      8 H           0.6973   -3.7664    0.2307 H     1    ESP         0.0079
      8 H           1.0955   -3.5105    0.2307 H     1    ESP         0.0060
      8 H           1.4054   -3.1528    0.2307 H     1    ESP         0.0029
      8 H           1.6020   -2.7223    0.2307 H     1    ESP        -0.0031
      8 H          -1.5890   -2.7223   -0.2475 H     1    ESP         0.0113
      8 H          -1.3924   -3.1528   -0.2475 H     1    ESP         0.0110
      8 H          -1.0825   -3.5105   -0.2475 H     1    ESP         0.0107
      8 H          -0.6843   -3.7664   -0.2475 H     1    ESP         0.0103
      8 H          -0.2301   -3.8998   -0.2475 H     1    ESP         0.0098
      8 H           0.2432   -3.8998   -0.2475 H     1    ESP         0.0090
      8 H           0.6973   -3.7664   -0.2475 H     1    ESP         0.0079
      8 H           1.0955   -3.5105   -0.2475 H     1    ESP         0.0060
      8 H           1.4054   -3.1528   -0.2475 H     1    ESP         0.0029
      8 H           1.6020   -2.7223   -0.2475 H     1    ESP        -0.0031
      8 H          -1.4469   -2.7260   -0.7063 H     1    ESP         0.0111
      8 H          -1.2298   -3.1521   -0.7063 H     1    ESP         0.0108
      8 H          -0.8917   -3.4901   -0.7063 H     1    ESP         0.0104
      8 H          -0.4657   -3.7072   -0.7063 H     1    ESP         0.0100
      8 H           0.0065   -3.7820   -0.7063 H     1    ESP         0.0093
      8 H           0.4787   -3.7072   -0.7063 H     1    ESP         0.0083
      8 H           0.9047   -3.4901   -0.7063 H     1    ESP         0.0067
      8 H           1.2428   -3.1521   -0.7063 H     1    ESP         0.0039
      8 H           1.4599   -2.7260   -0.7063 H     1    ESP        -0.0013
      8 H          -1.2415   -2.4871   -1.1085 H     1    ESP         0.0108
      8 H          -1.0730   -2.9222   -1.1085 H     1    ESP         0.0105
      8 H          -0.7586   -3.2670   -1.1085 H     1    ESP         0.0101
      8 H          -0.3410   -3.4750   -1.1085 H     1    ESP         0.0096
      8 H           0.1237   -3.5181   -1.1085 H     1    ESP         0.0088
      8 H           0.5724   -3.3904   -1.1085 H     1    ESP         0.0075
      8 H           0.9448   -3.1092   -1.1085 H     1    ESP         0.0052
      8 H           1.1904   -2.7125   -1.1085 H     1    ESP         0.0014
      8 H          -0.7801   -2.7079   -1.4217 H     1    ESP         0.0099
      8 H          -0.4476   -3.0404   -1.4217 H     1    ESP         0.0094
      8 H           0.0065   -3.1621   -1.4217 H     1    ESP         0.0086
      8 H           0.4606   -3.0404   -1.4217 H     1    ESP         0.0070
      8 H           0.7931   -2.7079   -1.4217 H     1    ESP         0.0043
      8 H          -0.2301   -2.6637   -1.6203 H     1    ESP         0.0085
      8 H           0.2432   -2.6637   -1.6203 H     1    ESP         0.0069
      8 H          -0.0292    1.2400    2.4041 H     1    ESP        -0.0034
      8 H           0.4390    1.2400    2.3580 H     1    ESP        -0.0035
      8 H           0.2049    1.6455    2.3580 H     1    ESP        -0.0020
      8 H          -0.2633    1.6455    2.3580 H     1    ESP        -0.0018
      8 H           0.2049    0.8345    2.3580 H     1    ESP        -0.0049
      8 H           0.7662    1.6992    2.2214 H     1    ESP        -0.0014
      8 H           0.4300    2.0354    2.2214 H     1    ESP        -0.0003
      8 H          -0.0292    2.1585    2.2214 H     1    ESP         0.0004
      8 H          -0.4885    2.0354    2.2214 H     1    ESP         0.0001
      8 H          -0.8246    1.6992    2.2214 H     1    ESP        -0.0010
      8 H           0.9922    2.0971    1.9996 H     1    ESP         0.0009
      8 H           0.6374    2.3948    1.9996 H     1    ESP         0.0018
      8 H           0.2023    2.5531    1.9996 H     1    ESP         0.0027
      8 H          -0.2608    2.5531    1.9996 H     1    ESP         0.0031
      8 H          -0.6959    2.3948    1.9996 H     1    ESP         0.0027
      8 H          -1.0507    2.0971    1.9996 H     1    ESP         0.0013
      8 H           1.1291    2.4803    1.7012 H     1    ESP         0.0033
      8 H           0.7515    2.7468    1.7012 H     1    ESP         0.0041
      8 H           0.3160    2.9016    1.7012 H     1    ESP         0.0054
      8 H          -1.3457    2.3110    1.7012 H     1    ESP         0.0034
      8 H           1.1624    2.8407    1.3375 H     1    ESP         0.0057
      8 H           1.2785    3.1972    0.4723 H     1    ESP         0.0092
      8 H           1.3629    3.1950    0.0041 H     1    ESP         0.0096
      8 H           1.2785    3.1972   -0.4641 H     1    ESP         0.0091
      8 H           1.1624    2.8407   -1.3293 H     1    ESP         0.0057
      8 H           1.1291    2.4803   -1.6930 H     1    ESP         0.0033
      8 H           0.7515    2.7468   -1.6930 H     1    ESP         0.0040
      8 H           0.3160    2.9016   -1.6930 H     1    ESP         0.0053
      8 H          -1.3457    2.3110   -1.6930 H     1    ESP         0.0033
      8 H           0.9922    2.0971   -1.9914 H     1    ESP         0.0009
      8 H           0.6374    2.3948   -1.9914 H     1    ESP         0.0017
      8 H           0.2023    2.5531   -1.9914 H     1    ESP         0.0026
      8 H          -0.2608    2.5531   -1.9914 H     1    ESP         0.0030
      8 H          -0.6959    2.3948   -1.9914 H     1    ESP         0.0025
      8 H          -1.0507    2.0971   -1.9914 H     1    ESP         0.0012
      8 H           0.7662    1.6992   -2.2132 H     1    ESP        -0.0014
      8 H           0.4300    2.0354   -2.2132 H     1    ESP        -0.0003
      8 H          -0.0292    2.1585   -2.2132 H     1    ESP         0.0003
      8 H          -0.4885    2.0354   -2.2132 H     1    ESP         0.0000
      8 H          -0.8246    1.6992   -2.2132 H     1    ESP        -0.0011
      8 H           0.4390    1.2400   -2.3498 H     1    ESP        -0.0036
      8 H           0.2049    1.6455   -2.3498 H     1    ESP        -0.0021
      8 H          -0.2633    1.6455   -2.3498 H     1    ESP        -0.0019
      8 H           0.2049    0.8345   -2.3498 H     1    ESP        -0.0050
      8 H          -0.0292    1.2400   -2.3959 H     1    ESP        -0.0034
      8 H           1.2420    0.7411    2.3969 H     1    ESP        -0.0041
      8 H           1.7102    0.7411    2.3508 H     1    ESP        -0.0034
      8 H           1.4761    1.1466    2.3508 H     1    ESP        -0.0020
      8 H           1.0079    1.1466    2.3508 H     1    ESP        -0.0030
      8 H           0.7738    0.7411    2.3508 H     1    ESP        -0.0050
      8 H           1.0079    0.3356    2.3508 H     1    ESP        -0.0063
      8 H           1.4761    0.3356    2.3508 H     1    ESP        -0.0059
      8 H           2.1605    0.7411    2.2142 H     1    ESP        -0.0027
      8 H           2.0374    1.2003    2.2142 H     1    ESP        -0.0006
      8 H           1.7012    1.5365    2.2142 H     1    ESP         0.0001
      8 H           1.2420    1.6596    2.2142 H     1    ESP        -0.0005
      8 H           2.0374    0.2819    2.2142 H     1    ESP        -0.0058
      8 H           2.5754    0.7411    1.9924 H     1    ESP        -0.0019
      8 H           2.4950    1.1972    1.9924 H     1    ESP         0.0006
      8 H           2.2634    1.5982    1.9924 H     1    ESP         0.0020
      8 H           1.9087    1.8958    1.9924 H     1    ESP         0.0022
      8 H           1.4736    2.0542    1.9924 H     1    ESP         0.0018
      8 H           2.4950    0.2851    1.9924 H     1    ESP        -0.0053
      8 H           2.9391    0.7411    1.6939 H     1    ESP        -0.0009
      8 H           2.0228    2.2479    1.6939 H     1    ESP         0.0044
      8 H           1.5873    2.4027    1.6939 H     1    ESP         0.0038
      8 H           2.8762    0.2833    1.6939 H     1    ESP        -0.0048
      8 H           1.5885    2.7063    1.3302 H     1    ESP         0.0058
      8 H           3.1838    0.2809    1.3302 H     1    ESP        -0.0041
      8 H           1.4738    2.9463    0.9153 H     1    ESP         0.0076
      8 H           1.4738    2.9463   -0.9216 H     1    ESP         0.0075
      8 H           1.5885    2.7063   -1.3365 H     1    ESP         0.0057
      8 H           3.1838    0.2809   -1.3365 H     1    ESP        -0.0042
      8 H           2.9391    0.7411   -1.7002 H     1    ESP        -0.0010
      8 H           2.0228    2.2479   -1.7002 H     1    ESP         0.0044
      8 H           1.5873    2.4027   -1.7002 H     1    ESP         0.0038
      8 H           2.8762    0.2833   -1.7002 H     1    ESP        -0.0048
      8 H           2.5754    0.7411   -1.9987 H     1    ESP        -0.0020
      8 H           2.4950    1.1972   -1.9987 H     1    ESP         0.0006
      8 H           2.2634    1.5982   -1.9987 H     1    ESP         0.0019
      8 H           1.9087    1.8958   -1.9987 H     1    ESP         0.0022
      8 H           1.4736    2.0542   -1.9987 H     1    ESP         0.0017
      8 H           2.4950    0.2851   -1.9987 H     1    ESP        -0.0054
      8 H           2.1605    0.7411   -2.2204 H     1    ESP        -0.0028
      8 H           2.0374    1.2003   -2.2204 H     1    ESP        -0.0006
      8 H           1.7012    1.5365   -2.2204 H     1    ESP         0.0001
      8 H           1.2420    1.6596   -2.2204 H     1    ESP        -0.0005
      8 H           2.0374    0.2819   -2.2204 H     1    ESP        -0.0059
      8 H           1.7102    0.7411   -2.3570 H     1    ESP        -0.0035
      8 H           1.4761    1.1466   -2.3570 H     1    ESP        -0.0021
      8 H           1.0079    1.1466   -2.3570 H     1    ESP        -0.0030
      8 H           0.7738    0.7411   -2.3570 H     1    ESP        -0.0050
      8 H           1.0079    0.3356   -2.3570 H     1    ESP        -0.0064
      8 H           1.4761    0.3356   -2.3570 H     1    ESP        -0.0060
      8 H           1.2420    0.7411   -2.4031 H     1    ESP        -0.0042
      8 H           1.3546   -0.6324    2.3912 H     1    ESP        -0.0082
      8 H           1.8228   -0.6324    2.3450 H     1    ESP        -0.0086
      8 H           1.5887   -0.2269    2.3450 H     1    ESP        -0.0081
      8 H           1.1205   -0.2269    2.3450 H     1    ESP        -0.0080
      8 H           0.8863   -0.6324    2.3450 H     1    ESP        -0.0076
      8 H           1.1205   -1.0379    2.3450 H     1    ESP        -0.0075
      8 H           1.5887   -1.0379    2.3450 H     1    ESP        -0.0084
      8 H           2.2730   -0.6324    2.2085 H     1    ESP        -0.0088
      8 H           2.1500   -0.1732    2.2085 H     1    ESP        -0.0079
      8 H           0.5592   -0.1732    2.2085 H     1    ESP        -0.0079
      8 H           1.3546   -1.5508    2.2085 H     1    ESP        -0.0071
      8 H           1.8138   -1.4278    2.2085 H     1    ESP        -0.0084
      8 H           2.1500   -1.0916    2.2085 H     1    ESP        -0.0090
      8 H           2.6879   -0.6324    1.9867 H     1    ESP        -0.0089
      8 H           2.6075   -0.1763    1.9867 H     1    ESP        -0.0078
      8 H           1.5861   -1.9455    1.9867 H     1    ESP        -0.0069
      8 H           2.0212   -1.7871    1.9867 H     1    ESP        -0.0084
      8 H           2.3760   -1.4894    1.9867 H     1    ESP        -0.0093
      8 H           2.6075   -1.0884    1.9867 H     1    ESP        -0.0094
      8 H           3.0516   -0.6324    1.6882 H     1    ESP        -0.0089
      8 H           2.9887   -0.1745    1.6882 H     1    ESP        -0.0075
      8 H           1.6998   -2.2939    1.6882 H     1    ESP        -0.0062
      8 H           2.1353   -2.1392    1.6882 H     1    ESP        -0.0081
      8 H           2.5129   -1.8726    1.6882 H     1    ESP        -0.0093
      8 H           2.8046   -1.5141    1.6882 H     1    ESP        -0.0097
      8 H           2.9887   -1.0902    1.6882 H     1    ESP        -0.0096
      8 H           3.3501   -0.6324    1.3245 H     1    ESP        -0.0089
      8 H           3.2963   -0.1722    1.3245 H     1    ESP        -0.0072
      8 H           1.7011   -2.5976    1.3245 H     1    ESP        -0.0048
      8 H           2.1449   -2.4647    1.3245 H     1    ESP        -0.0074
      8 H           2.5462   -2.2330    1.3245 H     1    ESP        -0.0089
      8 H           2.8832   -1.9151    1.3245 H     1    ESP        -0.0098
      8 H           3.1378   -1.5280    1.3245 H     1    ESP        -0.0100
      8 H           3.2963   -1.0926    1.3245 H     1    ESP        -0.0097
      8 H           3.5719   -0.6324    0.9096 H     1    ESP        -0.0088
      8 H           3.5234   -0.1714    0.9096 H     1    ESP        -0.0069
      8 H           2.0397   -2.7412    0.9096 H     1    ESP        -0.0059
      8 H           2.4632   -2.5526    0.9096 H     1    ESP        -0.0081
      8 H           2.8382   -2.2802    0.9096 H     1    ESP        -0.0094
      8 H           3.1484   -1.9357    0.9096 H     1    ESP        -0.0101
      8 H           3.3802   -1.5342    0.9096 H     1    ESP        -0.0102
      8 H           3.5234   -1.0934    0.9096 H     1    ESP        -0.0098
      8 H           3.7084   -0.6324    0.4594 H     1    ESP        -0.0087
      8 H           3.6632   -0.1732    0.4594 H     1    ESP        -0.0068
      8 H           1.8138   -2.9410    0.4594 H     1    ESP        -0.0032
      8 H           2.2554   -2.8071    0.4594 H     1    ESP        -0.0066
      8 H           2.6623   -2.5896    0.4594 H     1    ESP        -0.0086
      8 H           3.0190   -2.2968    0.4594 H     1    ESP        -0.0097
      8 H           3.3117   -1.9401    0.4594 H     1    ESP        -0.0103
      8 H           3.5293   -1.5332    0.4594 H     1    ESP        -0.0103
      8 H           3.6632   -1.0916    0.4594 H     1    ESP        -0.0098
      8 H           3.7546   -0.6324   -0.0088 H     1    ESP        -0.0087
      8 H           3.7112   -0.1782   -0.0088 H     1    ESP        -0.0067
      8 H           1.9204   -2.9647   -0.0088 H     1    ESP        -0.0039
      8 H           2.3516   -2.8155   -0.0088 H     1    ESP        -0.0070
      8 H           2.7467   -2.5874   -0.0088 H     1    ESP        -0.0088
      8 H           3.0915   -2.2886   -0.0088 H     1    ESP        -0.0099
      8 H           3.3736   -1.9299   -0.0088 H     1    ESP        -0.0103
      8 H           3.5826   -1.5244   -0.0088 H     1    ESP        -0.0103
      8 H           3.7112   -1.0866   -0.0088 H     1    ESP        -0.0098
      8 H           3.7084   -0.6324   -0.4771 H     1    ESP        -0.0088
      8 H           3.6632   -0.1732   -0.4771 H     1    ESP        -0.0068
      8 H           1.8138   -2.9410   -0.4771 H     1    ESP        -0.0032
      8 H           2.2554   -2.8071   -0.4771 H     1    ESP        -0.0066
      8 H           2.6623   -2.5896   -0.4771 H     1    ESP        -0.0086
      8 H           3.0190   -2.2968   -0.4771 H     1    ESP        -0.0097
      8 H           3.3117   -1.9401   -0.4771 H     1    ESP        -0.0103
      8 H           3.5293   -1.5332   -0.4771 H     1    ESP        -0.0103
      8 H           3.6632   -1.0916   -0.4771 H     1    ESP        -0.0098
      8 H           3.5719   -0.6324   -0.9273 H     1    ESP        -0.0088
      8 H           3.5234   -0.1714   -0.9273 H     1    ESP        -0.0070
      8 H           2.0397   -2.7412   -0.9273 H     1    ESP        -0.0059
      8 H           2.4632   -2.5526   -0.9273 H     1    ESP        -0.0082
      8 H           2.8382   -2.2802   -0.9273 H     1    ESP        -0.0095
      8 H           3.1484   -1.9357   -0.9273 H     1    ESP        -0.0101
      8 H           3.3802   -1.5342   -0.9273 H     1    ESP        -0.0102
      8 H           3.5234   -1.0934   -0.9273 H     1    ESP        -0.0098
      8 H           3.3501   -0.6324   -1.3422 H     1    ESP        -0.0089
      8 H           3.2963   -0.1722   -1.3422 H     1    ESP        -0.0073
      8 H           1.7011   -2.5976   -1.3422 H     1    ESP        -0.0048
      8 H           2.1449   -2.4647   -1.3422 H     1    ESP        -0.0074
      8 H           2.5462   -2.2330   -1.3422 H     1    ESP        -0.0089
      8 H           2.8832   -1.9151   -1.3422 H     1    ESP        -0.0098
      8 H           3.1378   -1.5280   -1.3422 H     1    ESP        -0.0100
      8 H           3.2963   -1.0926   -1.3422 H     1    ESP        -0.0098
      8 H           3.0516   -0.6324   -1.7059 H     1    ESP        -0.0089
      8 H           2.9887   -0.1745   -1.7059 H     1    ESP        -0.0076
      8 H           1.6998   -2.2939   -1.7059 H     1    ESP        -0.0062
      8 H           2.1353   -2.1392   -1.7059 H     1    ESP        -0.0081
      8 H           2.5129   -1.8726   -1.7059 H     1    ESP        -0.0093
      8 H           2.8046   -1.5141   -1.7059 H     1    ESP        -0.0098
      8 H           2.9887   -1.0902   -1.7059 H     1    ESP        -0.0097
      8 H           2.6879   -0.6324   -2.0044 H     1    ESP        -0.0089
      8 H           2.6075   -0.1763   -2.0044 H     1    ESP        -0.0078
      8 H           1.5861   -1.9455   -2.0044 H     1    ESP        -0.0069
      8 H           2.0212   -1.7871   -2.0044 H     1    ESP        -0.0084
      8 H           2.3760   -1.4894   -2.0044 H     1    ESP        -0.0093
      8 H           2.6075   -1.0884   -2.0044 H     1    ESP        -0.0095
      8 H           2.2730   -0.6324   -2.2262 H     1    ESP        -0.0089
      8 H           2.1500   -0.1732   -2.2262 H     1    ESP        -0.0080
      8 H           0.5592   -0.1732   -2.2262 H     1    ESP        -0.0079
      8 H           1.3546   -1.5508   -2.2262 H     1    ESP        -0.0072
      8 H           1.8138   -1.4278   -2.2262 H     1    ESP        -0.0085
      8 H           2.1500   -1.0916   -2.2262 H     1    ESP        -0.0091
      8 H           1.8228   -0.6324   -2.3627 H     1    ESP        -0.0086
      8 H           1.5887   -0.2269   -2.3627 H     1    ESP        -0.0082
      8 H           1.1205   -0.2269   -2.3627 H     1    ESP        -0.0081
      8 H           0.8863   -0.6324   -2.3627 H     1    ESP        -0.0076
      8 H           1.1205   -1.0379   -2.3627 H     1    ESP        -0.0075
      8 H           1.5887   -1.0379   -2.3627 H     1    ESP        -0.0084
      8 H           1.3546   -0.6324   -2.4088 H     1    ESP        -0.0082
      8 H           0.1769   -1.1831    2.3948 H     1    ESP        -0.0027
      8 H           0.6451   -1.1831    2.3486 H     1    ESP        -0.0050
      8 H           0.4110   -0.7776    2.3486 H     1    ESP        -0.0053
      8 H          -0.0573   -1.5886    2.3486 H     1    ESP        -0.0003
      8 H           0.4110   -1.5886    2.3486 H     1    ESP        -0.0021
      8 H          -0.2824   -1.9785    2.2121 H     1    ESP         0.0021
      8 H           0.1769   -2.1016    2.2121 H     1    ESP         0.0010
      8 H           0.6361   -1.9785    2.2121 H     1    ESP        -0.0015
      8 H           0.9722   -1.6424    2.2121 H     1    ESP        -0.0050
      8 H          -0.8446   -2.0402    1.9903 H     1    ESP         0.0040
      8 H          -0.4898   -2.3379    1.9903 H     1    ESP         0.0044
      8 H          -0.0547   -2.4962    1.9903 H     1    ESP         0.0040
      8 H           0.4084   -2.4962    1.9903 H     1    ESP         0.0022
      8 H           0.8435   -2.3379    1.9903 H     1    ESP        -0.0008
      8 H           1.1983   -2.0402    1.9903 H     1    ESP        -0.0046
      8 H           0.9576   -2.6899    1.6918 H     1    ESP         0.0008
      8 H           1.3352   -2.4234    1.6918 H     1    ESP        -0.0033
      8 H           1.3685   -2.7838    1.3281 H     1    ESP        -0.0010
      8 H           1.6605   -2.8309    0.9132 H     1    ESP        -0.0029
      8 H           1.6605   -2.8309   -0.9237 H     1    ESP        -0.0029
      8 H           1.3685   -2.7838   -1.3386 H     1    ESP        -0.0010
      8 H           0.9576   -2.6899   -1.7023 H     1    ESP         0.0008
      8 H           1.3352   -2.4234   -1.7023 H     1    ESP        -0.0033
      8 H          -0.8446   -2.0402   -2.0008 H     1    ESP         0.0040
      8 H          -0.4898   -2.3379   -2.0008 H     1    ESP         0.0045
      8 H          -0.0547   -2.4962   -2.0008 H     1    ESP         0.0040
      8 H           0.4084   -2.4962   -2.0008 H     1    ESP         0.0022
      8 H           0.8435   -2.3379   -2.0008 H     1    ESP        -0.0008
      8 H           1.1983   -2.0402   -2.0008 H     1    ESP        -0.0046
      8 H          -0.2824   -1.9785   -2.2225 H     1    ESP         0.0021
      8 H           0.1769   -2.1016   -2.2225 H     1    ESP         0.0010
      8 H           0.6361   -1.9785   -2.2225 H     1    ESP        -0.0016
      8 H           0.9722   -1.6424   -2.2225 H     1    ESP        -0.0051
      8 H           0.6451   -1.1831   -2.3591 H     1    ESP        -0.0050
      8 H           0.4110   -0.7776   -2.3591 H     1    ESP        -0.0053
      8 H          -0.0573   -1.5886   -2.3591 H     1    ESP        -0.0003
      8 H           0.4110   -1.5886   -2.3591 H     1    ESP        -0.0022
      8 H           0.1769   -1.1831   -2.4052 H     1    ESP        -0.0027
      8 H          -1.1716   -0.0655    2.8056 H     1    ESP        -0.0012
      8 H          -0.7107   -0.0655    2.7674 H     1    ESP        -0.0020
      8 H          -0.9412    0.3336    2.7674 H     1    ESP        -0.0018
      8 H          -1.4020    0.3336    2.7674 H     1    ESP        -0.0011
      8 H          -1.6325   -0.0655    2.7674 H     1    ESP        -0.0006
      8 H          -1.4020   -0.4646    2.7674 H     1    ESP        -0.0005
      8 H          -0.9412   -0.4646    2.7674 H     1    ESP        -0.0011
      8 H          -0.2625   -0.0655    2.6539 H     1    ESP        -0.0031
      8 H          -0.3843    0.3891    2.6539 H     1    ESP        -0.0031
      8 H          -0.7170    0.7219    2.6539 H     1    ESP        -0.0024
      8 H          -1.1716    0.8437    2.6539 H     1    ESP        -0.0015
      8 H          -1.6262    0.7219    2.6539 H     1    ESP        -0.0009
      8 H          -1.9590    0.3891    2.6539 H     1    ESP        -0.0005
      8 H          -2.0808   -0.0655    2.6539 H     1    ESP        -0.0002
      8 H          -1.9590   -0.5201    2.6539 H     1    ESP         0.0000
      8 H          -1.6262   -0.8528    2.6539 H     1    ESP         0.0002
      8 H          -1.1716   -0.9747    2.6539 H     1    ESP        -0.0000
      8 H          -0.7170   -0.8528    2.6539 H     1    ESP        -0.0009
      8 H          -0.3843   -0.5201    2.6539 H     1    ESP        -0.0022
      8 H           0.1610   -0.0655    2.4681 H     1    ESP        -0.0049
      8 H           0.0807    0.3903    2.4681 H     1    ESP        -0.0048
      8 H          -0.1507    0.7911    2.4681 H     1    ESP        -0.0040
      8 H          -0.5053    1.0886    2.4681 H     1    ESP        -0.0029
      8 H          -0.9402    1.2469    2.4681 H     1    ESP        -0.0018
      8 H          -1.4030    1.2469    2.4681 H     1    ESP        -0.0010
      8 H          -1.8379    1.0886    2.4681 H     1    ESP        -0.0006
      8 H          -2.1925    0.7911    2.4681 H     1    ESP        -0.0003
      8 H          -2.4239    0.3903    2.4681 H     1    ESP        -0.0001
      8 H          -2.5043   -0.0655    2.4681 H     1    ESP         0.0001
      8 H          -2.4239   -0.5213    2.4681 H     1    ESP         0.0003
      8 H          -2.1925   -0.9221    2.4681 H     1    ESP         0.0006
      8 H          -1.8379   -1.2196    2.4681 H     1    ESP         0.0008
      8 H          -1.4030   -1.3779    2.4681 H     1    ESP         0.0010
      8 H          -0.9402   -1.3779    2.4681 H     1    ESP         0.0007
      8 H          -0.5053   -1.2196    2.4681 H     1    ESP        -0.0004
      8 H          -0.1507   -0.9221    2.4681 H     1    ESP        -0.0022
      8 H           0.0807   -0.5213    2.4681 H     1    ESP        -0.0040
      8 H           0.5482   -0.0655    2.2152 H     1    ESP        -0.0078
      8 H          -1.2890    1.6503    2.2152 H     1    ESP        -0.0005
      8 H          -1.7475    1.5550    2.2152 H     1    ESP        -0.0002
      8 H          -2.1634    1.3395    2.2152 H     1    ESP        -0.0001
      8 H          -2.5057    1.0198    2.2152 H     1    ESP        -0.0000
      8 H          -2.7490    0.6197    2.2152 H     1    ESP         0.0001
      8 H          -2.8754    0.1687    2.2152 H     1    ESP         0.0002
      8 H          -2.8754   -0.2997    2.2152 H     1    ESP         0.0004
      8 H          -2.7490   -0.7507    2.2152 H     1    ESP         0.0006
      8 H          -2.5057   -1.1508    2.2152 H     1    ESP         0.0009
      8 H          -2.1634   -1.4705    2.2152 H     1    ESP         0.0013
      8 H          -1.7475   -1.6860    2.2152 H     1    ESP         0.0018
      8 H          -1.2890   -1.7813    2.2152 H     1    ESP         0.0022
      8 H          -0.8217   -1.7493    2.2152 H     1    ESP         0.0022
      8 H          -1.6300    1.9429    1.9020 H     1    ESP         0.0010
      8 H          -2.0654    1.7905    1.9020 H     1    ESP         0.0006
      8 H          -2.4560    1.5451    1.9020 H     1    ESP         0.0004
      8 H          -2.7822    1.2189    1.9020 H     1    ESP         0.0003
      8 H          -3.0276    0.8283    1.9020 H     1    ESP         0.0003
      8 H          -3.1800    0.3929    1.9020 H     1    ESP         0.0003
      8 H          -3.2316   -0.0655    1.9020 H     1    ESP         0.0004
      8 H          -3.1800   -0.5239    1.9020 H     1    ESP         0.0006
      8 H          -3.0276   -0.9593    1.9020 H     1    ESP         0.0009
      8 H          -2.7822   -1.3499    1.9020 H     1    ESP         0.0012
      8 H          -2.4560   -1.6761    1.9020 H     1    ESP         0.0017
      8 H          -2.0654   -1.9215    1.9020 H     1    ESP         0.0024
      8 H          -1.6300   -2.0739    1.9020 H     1    ESP         0.0033
      8 H          -1.1716   -2.1255    1.9020 H     1    ESP         0.0042
      8 H          -1.6289    2.2335    1.5371 H     1    ESP         0.0033
      8 H          -2.0686    2.1001    1.5371 H     1    ESP         0.0019
      8 H          -2.4739    1.8835    1.5371 H     1    ESP         0.0011
      8 H          -2.8291    1.5920    1.5371 H     1    ESP         0.0007
      8 H          -3.1206    1.2368    1.5371 H     1    ESP         0.0005
      8 H          -3.3372    0.8315    1.5371 H     1    ESP         0.0004
      8 H          -3.4706    0.3918    1.5371 H     1    ESP         0.0004
      8 H          -3.5157   -0.0655    1.5371 H     1    ESP         0.0006
      8 H          -3.4706   -0.5228    1.5371 H     1    ESP         0.0007
      8 H          -3.3372   -0.9625    1.5371 H     1    ESP         0.0010
      8 H          -3.1206   -1.3678    1.5371 H     1    ESP         0.0013
      8 H          -2.8291   -1.7230    1.5371 H     1    ESP         0.0018
      8 H          -2.4739   -2.0145    1.5371 H     1    ESP         0.0025
      8 H          -2.0686   -2.2311    1.5371 H     1    ESP         0.0035
      8 H          -1.6289   -2.3645    1.5371 H     1    ESP         0.0049
      8 H          -2.1794    2.2923    1.1304 H     1    ESP         0.0033
      8 H          -2.5842    2.0745    1.1304 H     1    ESP         0.0018
      8 H          -2.9436    1.7879    1.1304 H     1    ESP         0.0010
      8 H          -3.2461    1.4417    1.1304 H     1    ESP         0.0007
      8 H          -3.4818    1.0471    1.1304 H     1    ESP         0.0005
      8 H          -3.6434    0.6167    1.1304 H     1    ESP         0.0005
      8 H          -3.7255    0.1644    1.1304 H     1    ESP         0.0006
      8 H          -3.7255   -0.2953    1.1304 H     1    ESP         0.0007
      8 H          -3.6434   -0.7477    1.1304 H     1    ESP         0.0009
      8 H          -3.4818   -1.1780    1.1304 H     1    ESP         0.0012
      8 H          -3.2461   -1.5727    1.1304 H     1    ESP         0.0015
      8 H          -2.9436   -1.9189    1.1304 H     1    ESP         0.0021
      8 H          -2.5842   -2.2055    1.1304 H     1    ESP         0.0029
      8 H          -2.1794   -2.4233    1.1304 H     1    ESP         0.0042
      8 H          -1.7422   -2.5654    1.1304 H     1    ESP         0.0062
      8 H          -2.3936    2.3582    0.6930 H     1    ESP         0.0036
      8 H          -2.7856    2.1168    0.6930 H     1    ESP         0.0019
      8 H          -3.1312    1.8127    0.6930 H     1    ESP         0.0011
      8 H          -3.4204    1.4545    0.6930 H     1    ESP         0.0008
      8 H          -3.6450    1.0525    0.6930 H     1    ESP         0.0006
      8 H          -3.7983    0.6185    0.6930 H     1    ESP         0.0006
      8 H          -3.8762    0.1647    0.6930 H     1    ESP         0.0006
      8 H          -3.8762   -0.2957    0.6930 H     1    ESP         0.0007
      8 H          -3.7983   -0.7494    0.6930 H     1    ESP         0.0009
      8 H          -3.6450   -1.1835    0.6930 H     1    ESP         0.0012
      8 H          -3.4204   -1.5854    0.6930 H     1    ESP         0.0016
      8 H          -3.1312   -1.9436    0.6930 H     1    ESP         0.0021
      8 H          -2.7856   -2.2478    0.6930 H     1    ESP         0.0029
      8 H          -2.3936   -2.4892    0.6930 H     1    ESP         0.0042
      8 H          -1.9664   -2.6608    0.6930 H     1    ESP         0.0063
      8 H          -2.2925    2.4899    0.2368 H     1    ESP         0.0052
      8 H          -2.6978    2.2706    0.2368 H     1    ESP         0.0027
      8 H          -3.0615    1.9875    0.2368 H     1    ESP         0.0015
      8 H          -3.3737    1.6484    0.2368 H     1    ESP         0.0009
      8 H          -3.6257    1.2626    0.2368 H     1    ESP         0.0007
      8 H          -3.8109    0.8406    0.2368 H     1    ESP         0.0006
      8 H          -3.9240    0.3938    0.2368 H     1    ESP         0.0006
      8 H          -3.9620   -0.0655    0.2368 H     1    ESP         0.0007
      8 H          -3.9240   -0.5248    0.2368 H     1    ESP         0.0008
      8 H          -3.8109   -0.9715    0.2368 H     1    ESP         0.0011
      8 H          -3.6257   -1.3936    0.2368 H     1    ESP         0.0014
      8 H          -3.3737   -1.7794    0.2368 H     1    ESP         0.0018
      8 H          -3.0615   -2.1185    0.2368 H     1    ESP         0.0025
      8 H          -2.6978   -2.4016    0.2368 H     1    ESP         0.0035
      8 H          -2.2925   -2.6209    0.2368 H     1    ESP         0.0051
      8 H          -1.8566   -2.7705    0.2368 H     1    ESP         0.0079
      8 H          -2.2925    2.4899   -0.2256 H     1    ESP         0.0052
      8 H          -2.6978    2.2706   -0.2256 H     1    ESP         0.0027
      8 H          -3.0615    1.9875   -0.2256 H     1    ESP         0.0015
      8 H          -3.3737    1.6484   -0.2256 H     1    ESP         0.0009
      8 H          -3.6257    1.2626   -0.2256 H     1    ESP         0.0007
      8 H          -3.8109    0.8406   -0.2256 H     1    ESP         0.0006
      8 H          -3.9240    0.3938   -0.2256 H     1    ESP         0.0006
      8 H          -3.9620   -0.0655   -0.2256 H     1    ESP         0.0007
      8 H          -3.9240   -0.5248   -0.2256 H     1    ESP         0.0008
      8 H          -3.8109   -0.9715   -0.2256 H     1    ESP         0.0011
      8 H          -3.6257   -1.3936   -0.2256 H     1    ESP         0.0014
      8 H          -3.3737   -1.7794   -0.2256 H     1    ESP         0.0018
      8 H          -3.0615   -2.1185   -0.2256 H     1    ESP         0.0025
      8 H          -2.6978   -2.4016   -0.2256 H     1    ESP         0.0035
      8 H          -2.2925   -2.6209   -0.2256 H     1    ESP         0.0051
      8 H          -1.8566   -2.7705   -0.2256 H     1    ESP         0.0080
      8 H          -2.3936    2.3582   -0.6817 H     1    ESP         0.0036
      8 H          -2.7856    2.1168   -0.6817 H     1    ESP         0.0019
      8 H          -3.1312    1.8127   -0.6817 H     1    ESP         0.0011
      8 H          -3.4204    1.4545   -0.6817 H     1    ESP         0.0007
      8 H          -3.6450    1.0525   -0.6817 H     1    ESP         0.0006
      8 H          -3.7983    0.6185   -0.6817 H     1    ESP         0.0006
      8 H          -3.8762    0.1647   -0.6817 H     1    ESP         0.0006
      8 H          -3.8762   -0.2957   -0.6817 H     1    ESP         0.0007
      8 H          -3.7983   -0.7494   -0.6817 H     1    ESP         0.0009
      8 H          -3.6450   -1.1835   -0.6817 H     1    ESP         0.0012
      8 H          -3.4204   -1.5854   -0.6817 H     1    ESP         0.0016
      8 H          -3.1312   -1.9436   -0.6817 H     1    ESP         0.0021
      8 H          -2.7856   -2.2478   -0.6817 H     1    ESP         0.0029
      8 H          -2.3936   -2.4892   -0.6817 H     1    ESP         0.0042
      8 H          -1.9664   -2.6608   -0.6817 H     1    ESP         0.0064
      8 H          -2.1794    2.2923   -1.1191 H     1    ESP         0.0032
      8 H          -2.5842    2.0745   -1.1191 H     1    ESP         0.0017
      8 H          -2.9436    1.7879   -1.1191 H     1    ESP         0.0010
      8 H          -3.2461    1.4417   -1.1191 H     1    ESP         0.0007
      8 H          -3.4818    1.0471   -1.1191 H     1    ESP         0.0005
      8 H          -3.6434    0.6167   -1.1191 H     1    ESP         0.0005
      8 H          -3.7255    0.1644   -1.1191 H     1    ESP         0.0006
      8 H          -3.7255   -0.2953   -1.1191 H     1    ESP         0.0007
      8 H          -3.6434   -0.7477   -1.1191 H     1    ESP         0.0009
      8 H          -3.4818   -1.1780   -1.1191 H     1    ESP         0.0012
      8 H          -3.2461   -1.5727   -1.1191 H     1    ESP         0.0016
      8 H          -2.9436   -1.9189   -1.1191 H     1    ESP         0.0021
      8 H          -2.5842   -2.2055   -1.1191 H     1    ESP         0.0030
      8 H          -2.1794   -2.4233   -1.1191 H     1    ESP         0.0043
      8 H          -1.7422   -2.5654   -1.1191 H     1    ESP         0.0064
      8 H          -1.6289    2.2335   -1.5258 H     1    ESP         0.0032
      8 H          -2.0686    2.1001   -1.5258 H     1    ESP         0.0019
      8 H          -2.4739    1.8835   -1.5258 H     1    ESP         0.0011
      8 H          -2.8291    1.5920   -1.5258 H     1    ESP         0.0006
      8 H          -3.1206    1.2368   -1.5258 H     1    ESP         0.0004
      8 H          -3.3372    0.8315   -1.5258 H     1    ESP         0.0004
      8 H          -3.4706    0.3918   -1.5258 H     1    ESP         0.0004
      8 H          -3.5157   -0.0655   -1.5258 H     1    ESP         0.0005
      8 H          -3.4706   -0.5228   -1.5258 H     1    ESP         0.0007
      8 H          -3.3372   -0.9625   -1.5258 H     1    ESP         0.0010
      8 H          -3.1206   -1.3678   -1.5258 H     1    ESP         0.0013
      8 H          -2.8291   -1.7230   -1.5258 H     1    ESP         0.0018
      8 H          -2.4739   -2.0145   -1.5258 H     1    ESP         0.0025
      8 H          -2.0686   -2.2311   -1.5258 H     1    ESP         0.0035
      8 H          -1.6289   -2.3645   -1.5258 H     1    ESP         0.0051
      8 H          -1.6300    1.9429   -1.8908 H     1    ESP         0.0009
      8 H          -2.0654    1.7905   -1.8908 H     1    ESP         0.0006
      8 H          -2.4560    1.5451   -1.8908 H     1    ESP         0.0004
      8 H          -2.7822    1.2189   -1.8908 H     1    ESP         0.0003
      8 H          -3.0276    0.8283   -1.8908 H     1    ESP         0.0002
      8 H          -3.1800    0.3929   -1.8908 H     1    ESP         0.0003
      8 H          -3.2316   -0.0655   -1.8908 H     1    ESP         0.0004
      8 H          -3.1800   -0.5239   -1.8908 H     1    ESP         0.0006
      8 H          -3.0276   -0.9593   -1.8908 H     1    ESP         0.0009
      8 H          -2.7822   -1.3499   -1.8908 H     1    ESP         0.0013
      8 H          -2.4560   -1.6761   -1.8908 H     1    ESP         0.0018
      8 H          -2.0654   -1.9215   -1.8908 H     1    ESP         0.0024
      8 H          -1.6300   -2.0739   -1.8908 H     1    ESP         0.0033
      8 H          -1.1716   -2.1255   -1.8908 H     1    ESP         0.0043
      8 H           0.5482   -0.0655   -2.2040 H     1    ESP        -0.0080
      8 H          -1.2890    1.6503   -2.2040 H     1    ESP        -0.0006
      8 H          -1.7475    1.5550   -2.2040 H     1    ESP        -0.0002
      8 H          -2.1634    1.3395   -2.2040 H     1    ESP        -0.0001
      8 H          -2.5057    1.0198   -2.2040 H     1    ESP        -0.0000
      8 H          -2.7490    0.6197   -2.2040 H     1    ESP         0.0001
      8 H          -2.8754    0.1687   -2.2040 H     1    ESP         0.0002
      8 H          -2.8754   -0.2997   -2.2040 H     1    ESP         0.0004
      8 H          -2.7490   -0.7507   -2.2040 H     1    ESP         0.0006
      8 H          -2.5057   -1.1508   -2.2040 H     1    ESP         0.0010
      8 H          -2.1634   -1.4705   -2.2040 H     1    ESP         0.0014
      8 H          -1.7475   -1.6860   -2.2040 H     1    ESP         0.0019
      8 H          -1.2890   -1.7813   -2.2040 H     1    ESP         0.0023
      8 H          -0.8217   -1.7493   -2.2040 H     1    ESP         0.0023
      8 H           0.1610   -0.0655   -2.4569 H     1    ESP        -0.0051
      8 H           0.0807    0.3903   -2.4569 H     1    ESP        -0.0049
      8 H          -0.1507    0.7911   -2.4569 H     1    ESP        -0.0041
      8 H          -0.5053    1.0886   -2.4569 H     1    ESP        -0.0030
      8 H          -0.9402    1.2469   -2.4569 H     1    ESP        -0.0019
      8 H          -1.4030    1.2469   -2.4569 H     1    ESP        -0.0011
      8 H          -1.8379    1.0886   -2.4569 H     1    ESP        -0.0006
      8 H          -2.1925    0.7911   -2.4569 H     1    ESP        -0.0003
      8 H          -2.4239    0.3903   -2.4569 H     1    ESP        -0.0001
      8 H          -2.5043   -0.0655   -2.4569 H     1    ESP         0.0001
      8 H          -2.4239   -0.5213   -2.4569 H     1    ESP         0.0003
      8 H          -2.1925   -0.9221   -2.4569 H     1    ESP         0.0006
      8 H          -1.8379   -1.2196   -2.4569 H     1    ESP         0.0008
      8 H          -1.4030   -1.3779   -2.4569 H     1    ESP         0.0010
      8 H          -0.9402   -1.3779   -2.4569 H     1    ESP         0.0007
      8 H          -0.5053   -1.2196   -2.4569 H     1    ESP        -0.0004
      8 H          -0.1507   -0.9221   -2.4569 H     1    ESP        -0.0023
      8 H           0.0807   -0.5213   -2.4569 H     1    ESP        -0.0042
      8 H          -0.2625   -0.0655   -2.6427 H     1    ESP        -0.0032
      8 H          -0.3843    0.3891   -2.6427 H     1    ESP        -0.0032
      8 H          -0.7170    0.7219   -2.6427 H     1    ESP        -0.0025
      8 H          -1.1716    0.8437   -2.6427 H     1    ESP        -0.0016
      8 H          -1.6262    0.7219   -2.6427 H     1    ESP        -0.0009
      8 H          -1.9590    0.3891   -2.6427 H     1    ESP        -0.0005
      8 H          -2.0808   -0.0655   -2.6427 H     1    ESP        -0.0002
      8 H          -1.9590   -0.5201   -2.6427 H     1    ESP         0.0000
      8 H          -1.6262   -0.8528   -2.6427 H     1    ESP         0.0002
      8 H          -1.1716   -0.9747   -2.6427 H     1    ESP        -0.0000
      8 H          -0.7170   -0.8528   -2.6427 H     1    ESP        -0.0009
      8 H          -0.3843   -0.5201   -2.6427 H     1    ESP        -0.0023
      8 H          -0.7107   -0.0655   -2.7562 H     1    ESP        -0.0020
      8 H          -0.9412    0.3336   -2.7562 H     1    ESP        -0.0018
      8 H          -1.4020    0.3336   -2.7562 H     1    ESP        -0.0011
      8 H          -1.6325   -0.0655   -2.7562 H     1    ESP        -0.0006
      8 H          -1.4020   -0.4646   -2.7562 H     1    ESP        -0.0005
      8 H          -0.9412   -0.4646   -2.7562 H     1    ESP        -0.0011
      8 H          -1.1716   -0.0655   -2.7944 H     1    ESP        -0.0012
      8 H          -0.5787    2.6709    1.8732 H     1    ESP         0.0046
      8 H           0.0972    3.0457    1.7091 H     1    ESP         0.0059
      8 H          -0.3489    3.1652    1.7091 H     1    ESP         0.0064
      8 H          -0.7951    3.0457    1.7091 H     1    ESP         0.0062
      8 H          -1.1216    2.7191    1.7091 H     1    ESP         0.0052
      8 H           0.5920    3.1307    1.4461 H     1    ESP         0.0066
      8 H           0.2186    3.4127    1.4461 H     1    ESP         0.0072
      8 H          -0.2314    3.5407    1.4461 H     1    ESP         0.0075
      8 H          -0.6973    3.4975    1.4461 H     1    ESP         0.0075
      8 H          -1.1162    3.2890    1.4461 H     1    ESP         0.0071
      8 H          -1.4314    2.9432    1.4461 H     1    ESP         0.0063
      8 H          -1.6004    2.5069    1.4461 H     1    ESP         0.0049
      8 H           0.9566    3.1631    1.0997 H     1    ESP         0.0076
      8 H           0.6363    3.5083    1.0997 H     1    ESP         0.0079
      8 H           0.2284    3.7438    1.0997 H     1    ESP         0.0082
      8 H          -0.2308    3.8487    1.0997 H     1    ESP         0.0083
      8 H          -0.7005    3.8135    1.0997 H     1    ESP         0.0083
      8 H          -1.1390    3.6414    1.0997 H     1    ESP         0.0080
      8 H          -1.5072    3.3477    1.0997 H     1    ESP         0.0075
      8 H          -1.7726    2.9585    1.0997 H     1    ESP         0.0066
      8 H          -1.9114    2.5084    1.0997 H     1    ESP         0.0053
      8 H           0.9205    3.5424    0.6898 H     1    ESP         0.0085
      8 H           0.5487    3.8277    0.6898 H     1    ESP         0.0086
      8 H           0.1157    4.0070    0.6898 H     1    ESP         0.0087
      8 H          -0.3489    4.0682    0.6898 H     1    ESP         0.0088
      8 H          -0.8136    4.0070    0.6898 H     1    ESP         0.0087
      8 H          -1.2465    3.8277    0.6898 H     1    ESP         0.0085
      8 H          -1.6183    3.5424    0.6898 H     1    ESP         0.0080
      8 H          -1.9036    3.1706    0.6898 H     1    ESP         0.0073
      8 H          -2.0830    2.7376    0.6898 H     1    ESP         0.0063
      8 H           1.0405    3.5777    0.2404 H     1    ESP         0.0089
      8 H           0.6724    3.8822    0.2404 H     1    ESP         0.0089
      8 H           0.2401    4.0857    0.2404 H     1    ESP         0.0089
      8 H          -0.2292    4.1752    0.2404 H     1    ESP         0.0090
      8 H          -0.7061    4.1452    0.2404 H     1    ESP         0.0090
      8 H          -1.1605    3.9975    0.2404 H     1    ESP         0.0088
      8 H          -1.5639    3.7415    0.2404 H     1    ESP         0.0084
      8 H          -1.8909    3.3933    0.2404 H     1    ESP         0.0078
      8 H          -2.1211    2.9746    0.2404 H     1    ESP         0.0070
      8 H           1.0405    3.5777   -0.2224 H     1    ESP         0.0089
      8 H           0.6724    3.8822   -0.2224 H     1    ESP         0.0089
      8 H           0.2401    4.0857   -0.2224 H     1    ESP         0.0089
      8 H          -0.2292    4.1752   -0.2224 H     1    ESP         0.0090
      8 H          -0.7061    4.1452   -0.2224 H     1    ESP         0.0090
      8 H          -1.1605    3.9975   -0.2224 H     1    ESP         0.0088
      8 H          -1.5639    3.7415   -0.2224 H     1    ESP         0.0084
      8 H          -1.8909    3.3933   -0.2224 H     1    ESP         0.0078
      8 H          -2.1211    2.9746   -0.2224 H     1    ESP         0.0070
      8 H           0.9205    3.5424   -0.6718 H     1    ESP         0.0085
      8 H           0.5487    3.8277   -0.6718 H     1    ESP         0.0086
      8 H           0.1157    4.0070   -0.6718 H     1    ESP         0.0087
      8 H          -0.3489    4.0682   -0.6718 H     1    ESP         0.0088
      8 H          -0.8136    4.0070   -0.6718 H     1    ESP         0.0087
      8 H          -1.2465    3.8277   -0.6718 H     1    ESP         0.0085
      8 H          -1.6183    3.5424   -0.6718 H     1    ESP         0.0080
      8 H          -1.9036    3.1706   -0.6718 H     1    ESP         0.0073
      8 H          -2.0830    2.7376   -0.6718 H     1    ESP         0.0062
      8 H           0.9566    3.1631   -1.0817 H     1    ESP         0.0076
      8 H           0.6363    3.5083   -1.0817 H     1    ESP         0.0079
      8 H           0.2284    3.7438   -1.0817 H     1    ESP         0.0082
      8 H          -0.2308    3.8487   -1.0817 H     1    ESP         0.0083
      8 H          -0.7005    3.8135   -1.0817 H     1    ESP         0.0083
      8 H          -1.1390    3.6414   -1.0817 H     1    ESP         0.0080
      8 H          -1.5072    3.3477   -1.0817 H     1    ESP         0.0075
      8 H          -1.7726    2.9585   -1.0817 H     1    ESP         0.0066
      8 H          -1.9114    2.5084   -1.0817 H     1    ESP         0.0053
      8 H           0.5920    3.1307   -1.4281 H     1    ESP         0.0066
      8 H           0.2186    3.4127   -1.4281 H     1    ESP         0.0072
      8 H          -0.2314    3.5407   -1.4281 H     1    ESP         0.0075
      8 H          -0.6973    3.4975   -1.4281 H     1    ESP         0.0075
      8 H          -1.1162    3.2890   -1.4281 H     1    ESP         0.0071
      8 H          -1.4314    2.9432   -1.4281 H     1    ESP         0.0063
      8 H          -1.6004    2.5069   -1.4281 H     1    ESP         0.0049
      8 H           0.0972    3.0457   -1.6911 H     1    ESP         0.0059
      8 H          -0.3489    3.1652   -1.6911 H     1    ESP         0.0064
      8 H          -0.7951    3.0457   -1.6911 H     1    ESP         0.0061
      8 H          -1.1216    2.7191   -1.6911 H     1    ESP         0.0052
      8 H          -0.5787    2.6709   -1.8552 H     1    ESP         0.0045
      8 H           3.0356    1.3433    1.6948 H     1    ESP         0.0022
      8 H           2.9161    1.7895    1.6948 H     1    ESP         0.0035
      8 H           2.5895    2.1161    1.6948 H     1    ESP         0.0042
      8 H           2.1433    2.2356    1.6948 H     1    ESP         0.0044
      8 H           3.4165    1.3433    1.4319 H     1    ESP         0.0025
      8 H           3.3306    1.8033    1.4319 H     1    ESP         0.0037
      8 H           3.0842    2.2011    1.4319 H     1    ESP         0.0044
      8 H           2.7109    2.4830    1.4319 H     1    ESP         0.0050
      8 H           2.2608    2.6111    1.4319 H     1    ESP         0.0054
      8 H           3.3306    0.8834    1.4319 H     1    ESP         0.0006
      8 H           3.7235    1.3433    1.0854 H     1    ESP         0.0027
      8 H           3.6533    1.8091    1.0854 H     1    ESP         0.0038
      8 H           3.4489    2.2334    1.0854 H     1    ESP         0.0045
      8 H           3.1285    2.5787    1.0854 H     1    ESP         0.0051
      8 H           2.7206    2.8142    1.0854 H     1    ESP         0.0056
      8 H           2.2614    2.9190    1.0854 H     1    ESP         0.0061
      8 H           1.7917    2.8838    1.0854 H     1    ESP         0.0067
      8 H           3.4489    0.4532    1.0854 H     1    ESP        -0.0019
      8 H           3.6533    0.8776    1.0854 H     1    ESP         0.0010
      8 H           3.9386    1.3433    0.6756 H     1    ESP         0.0028
      8 H           3.8774    1.8080    0.6756 H     1    ESP         0.0038
      8 H           3.6981    2.2409    0.6756 H     1    ESP         0.0046
      8 H           3.4128    2.6127    0.6756 H     1    ESP         0.0051
      8 H           3.0410    2.8980    0.6756 H     1    ESP         0.0056
      8 H           2.6080    3.0774    0.6756 H     1    ESP         0.0061
      8 H           2.1433    3.1386    0.6756 H     1    ESP         0.0068
      8 H           1.6787    3.0774    0.6756 H     1    ESP         0.0078
      8 H           3.6981    0.4457    0.6756 H     1    ESP        -0.0014
      8 H           3.8774    0.8787    0.6756 H     1    ESP         0.0012
      8 H           4.0493    1.3433    0.2262 H     1    ESP         0.0028
      8 H           3.9895    1.8173    0.2262 H     1    ESP         0.0039
      8 H           3.8136    2.2616    0.2262 H     1    ESP         0.0046
      8 H           3.5328    2.6481    0.2262 H     1    ESP         0.0052
      8 H           3.1646    2.9526    0.2262 H     1    ESP         0.0057
      8 H           2.7323    3.1560    0.2262 H     1    ESP         0.0062
      8 H           2.2630    3.2456    0.2262 H     1    ESP         0.0068
      8 H           1.7862    3.2156    0.2262 H     1    ESP         0.0080
      8 H           3.8136    0.4251    0.2262 H     1    ESP        -0.0014
      8 H           3.9895    0.8693    0.2262 H     1    ESP         0.0013
      8 H           4.0493    1.3433   -0.2367 H     1    ESP         0.0028
      8 H           3.9895    1.8173   -0.2367 H     1    ESP         0.0039
      8 H           3.8136    2.2616   -0.2367 H     1    ESP         0.0046
      8 H           3.5328    2.6481   -0.2367 H     1    ESP         0.0052
      8 H           3.1646    2.9526   -0.2367 H     1    ESP         0.0057
      8 H           2.7323    3.1560   -0.2367 H     1    ESP         0.0062
      8 H           2.2630    3.2456   -0.2367 H     1    ESP         0.0068
      8 H           1.7862    3.2156   -0.2367 H     1    ESP         0.0080
      8 H           3.8136    0.4251   -0.2367 H     1    ESP        -0.0014
      8 H           3.9895    0.8693   -0.2367 H     1    ESP         0.0012
      8 H           3.9386    1.3433   -0.6861 H     1    ESP         0.0028
      8 H           3.8774    1.8080   -0.6861 H     1    ESP         0.0038
      8 H           3.6981    2.2409   -0.6861 H     1    ESP         0.0046
      8 H           3.4128    2.6127   -0.6861 H     1    ESP         0.0051
      8 H           3.0410    2.8980   -0.6861 H     1    ESP         0.0056
      8 H           2.6080    3.0774   -0.6861 H     1    ESP         0.0061
      8 H           2.1433    3.1386   -0.6861 H     1    ESP         0.0067
      8 H           1.6787    3.0774   -0.6861 H     1    ESP         0.0078
      8 H           3.6981    0.4457   -0.6861 H     1    ESP        -0.0015
      8 H           3.8774    0.8787   -0.6861 H     1    ESP         0.0012
      8 H           3.7235    1.3433   -1.0959 H     1    ESP         0.0026
      8 H           3.6533    1.8091   -1.0959 H     1    ESP         0.0038
      8 H           3.4489    2.2334   -1.0959 H     1    ESP         0.0045
      8 H           3.1285    2.5787   -1.0959 H     1    ESP         0.0051
      8 H           2.7206    2.8142   -1.0959 H     1    ESP         0.0056
      8 H           2.2614    2.9190   -1.0959 H     1    ESP         0.0060
      8 H           1.7917    2.8838   -1.0959 H     1    ESP         0.0066
      8 H           3.4489    0.4532   -1.0959 H     1    ESP        -0.0019
      8 H           3.6533    0.8776   -1.0959 H     1    ESP         0.0009
      8 H           3.4165    1.3433   -1.4424 H     1    ESP         0.0025
      8 H           3.3306    1.8033   -1.4424 H     1    ESP         0.0036
      8 H           3.0842    2.2011   -1.4424 H     1    ESP         0.0044
      8 H           2.7109    2.4830   -1.4424 H     1    ESP         0.0049
      8 H           2.2608    2.6111   -1.4424 H     1    ESP         0.0053
      8 H           3.3306    0.8834   -1.4424 H     1    ESP         0.0006
      8 H           3.0356    1.3433   -1.7053 H     1    ESP         0.0022
      8 H           2.9161    1.7895   -1.7053 H     1    ESP         0.0035
      8 H           2.5895    2.1161   -1.7053 H     1    ESP         0.0042
      8 H           2.1433    2.2356   -1.7053 H     1    ESP         0.0044
      8 H           2.3731    1.7413   -1.8695 H     1    ESP         0.0031
      8 H          -0.2232   -2.6517    1.8558 H     1    ESP         0.0055
      8 H          -0.7662   -2.6999    1.6917 H     1    ESP         0.0067
      8 H          -0.4396   -3.0265    1.6917 H     1    ESP         0.0064
      8 H           0.0065   -3.1461    1.6917 H     1    ESP         0.0056
      8 H           0.4526   -3.0265    1.6917 H     1    ESP         0.0043
      8 H          -1.2450   -2.4878    1.4288 H     1    ESP         0.0074
      8 H          -1.0760   -2.9241    1.4288 H     1    ESP         0.0073
      8 H          -0.7608   -3.2698    1.4288 H     1    ESP         0.0070
      8 H          -0.3419   -3.4784    1.4288 H     1    ESP         0.0066
      8 H           0.1240   -3.5216    1.4288 H     1    ESP         0.0059
      8 H           0.5740   -3.3935    1.4288 H     1    ESP         0.0048
      8 H           0.9474   -3.1116    1.4288 H     1    ESP         0.0029
      8 H          -1.4171   -2.9394    1.0823 H     1    ESP         0.0078
      8 H          -1.1518   -3.3286    1.0823 H     1    ESP         0.0075
      8 H          -0.7836   -3.6222    1.0823 H     1    ESP         0.0073
      8 H          -0.3451   -3.7943    1.0823 H     1    ESP         0.0068
      8 H           0.1246   -3.8295    1.0823 H     1    ESP         0.0062
      8 H           0.5838   -3.7247    1.0823 H     1    ESP         0.0053
      8 H           0.9917   -3.4892    1.0823 H     1    ESP         0.0038
      8 H           1.3121   -3.1439    1.0823 H     1    ESP         0.0015
      8 H          -1.5482   -3.1514    0.6725 H     1    ESP         0.0079
      8 H          -1.2629   -3.5232    0.6725 H     1    ESP         0.0077
      8 H          -0.8911   -3.8085    0.6725 H     1    ESP         0.0075
      8 H          -0.4581   -3.9879    0.6725 H     1    ESP         0.0071
      8 H           0.0065   -4.0490    0.6725 H     1    ESP         0.0066
      8 H           0.4711   -3.9879    0.6725 H     1    ESP         0.0058
      8 H           0.9041   -3.8085    0.6725 H     1    ESP         0.0047
      8 H           1.2759   -3.5232    0.6725 H     1    ESP         0.0030
      8 H           1.5612   -3.1514    0.6725 H     1    ESP         0.0002
      8 H          -1.7656   -2.9555    0.2231 H     1    ESP         0.0082
      8 H          -1.5355   -3.3741    0.2231 H     1    ESP         0.0080
      8 H          -1.2084   -3.7224    0.2231 H     1    ESP         0.0077
      8 H          -0.8050   -3.9784    0.2231 H     1    ESP         0.0074
      8 H          -0.3506   -4.1261    0.2231 H     1    ESP         0.0071
      8 H           0.1262   -4.1561    0.2231 H     1    ESP         0.0065
      8 H           0.5955   -4.0665    0.2231 H     1    ESP         0.0057
      8 H           1.0278   -3.8631    0.2231 H     1    ESP         0.0046
      8 H           1.3959   -3.5586    0.2231 H     1    ESP         0.0027
      8 H           1.6767   -3.1720    0.2231 H     1    ESP        -0.0004
      8 H          -1.7656   -2.9555   -0.2398 H     1    ESP         0.0082
      8 H          -1.5355   -3.3741   -0.2398 H     1    ESP         0.0080
      8 H          -1.2084   -3.7224   -0.2398 H     1    ESP         0.0077
      8 H          -0.8050   -3.9784   -0.2398 H     1    ESP         0.0074
      8 H          -0.3506   -4.1261   -0.2398 H     1    ESP         0.0071
      8 H           0.1262   -4.1561   -0.2398 H     1    ESP         0.0065
      8 H           0.5955   -4.0665   -0.2398 H     1    ESP         0.0057
      8 H           1.0278   -3.8631   -0.2398 H     1    ESP         0.0045
      8 H           1.3959   -3.5586   -0.2398 H     1    ESP         0.0027
      8 H           1.6767   -3.1720   -0.2398 H     1    ESP        -0.0004
      8 H          -1.5482   -3.1514   -0.6892 H     1    ESP         0.0079
      8 H          -1.2629   -3.5232   -0.6892 H     1    ESP         0.0077
      8 H          -0.8911   -3.8085   -0.6892 H     1    ESP         0.0075
      8 H          -0.4581   -3.9879   -0.6892 H     1    ESP         0.0071
      8 H           0.0065   -4.0490   -0.6892 H     1    ESP         0.0066
      8 H           0.4711   -3.9879   -0.6892 H     1    ESP         0.0058
      8 H           0.9041   -3.8085   -0.6892 H     1    ESP         0.0047
      8 H           1.2759   -3.5232   -0.6892 H     1    ESP         0.0030
      8 H           1.5612   -3.1514   -0.6892 H     1    ESP         0.0002
      8 H          -1.4171   -2.9394   -1.0990 H     1    ESP         0.0077
      8 H          -1.1518   -3.3286   -1.0990 H     1    ESP         0.0075
      8 H          -0.7836   -3.6222   -1.0990 H     1    ESP         0.0072
      8 H          -0.3451   -3.7943   -1.0990 H     1    ESP         0.0068
      8 H           0.1246   -3.8295   -1.0990 H     1    ESP         0.0062
      8 H           0.5838   -3.7247   -1.0990 H     1    ESP         0.0053
      8 H           0.9917   -3.4892   -1.0990 H     1    ESP         0.0038
      8 H           1.3121   -3.1439   -1.0990 H     1    ESP         0.0015
      8 H          -1.2450   -2.4878   -1.4455 H     1    ESP         0.0074
      8 H          -1.0760   -2.9241   -1.4455 H     1    ESP         0.0073
      8 H          -0.7608   -3.2698   -1.4455 H     1    ESP         0.0070
      8 H          -0.3419   -3.4784   -1.4455 H     1    ESP         0.0066
      8 H           0.1240   -3.5216   -1.4455 H     1    ESP         0.0059
      8 H           0.5740   -3.3935   -1.4455 H     1    ESP         0.0047
      8 H           0.9474   -3.1116   -1.4455 H     1    ESP         0.0029
      8 H          -0.7662   -2.6999   -1.7084 H     1    ESP         0.0067
      8 H          -0.4396   -3.0265   -1.7084 H     1    ESP         0.0063
      8 H           0.0065   -3.1461   -1.7084 H     1    ESP         0.0056
      8 H           0.4526   -3.0265   -1.7084 H     1    ESP         0.0043
      8 H          -0.2232   -2.6517   -1.8726 H     1    ESP         0.0055
      8 H          -0.0292    1.2400    2.7041 H     1    ESP        -0.0023
      8 H           0.4396    1.2400    2.6631 H     1    ESP        -0.0025
      8 H           0.2052    1.6461    2.6631 H     1    ESP        -0.0014
      8 H          -0.2637    1.6461    2.6631 H     1    ESP        -0.0012
      8 H           0.7705    1.7017    2.5413 H     1    ESP        -0.0011
      8 H           0.4325    2.0398    2.5413 H     1    ESP        -0.0003
      8 H          -0.0292    2.1635    2.5413 H     1    ESP         0.0001
      8 H          -0.4910    2.0398    2.5413 H     1    ESP        -0.0000
      8 H           1.0049    2.1078    2.3424 H     1    ESP         0.0004
      8 H           0.6458    2.4092    2.3424 H     1    ESP         0.0010
      8 H           0.2052    2.5695    2.3424 H     1    ESP         0.0015
      8 H          -0.2637    2.5695    2.3424 H     1    ESP         0.0018
      8 H          -0.7042    2.4092    2.3424 H     1    ESP         0.0014
      8 H          -1.0634    2.1078    2.3424 H     1    ESP         0.0007
      8 H           1.1554    2.5084    2.0724 H     1    ESP         0.0020
      8 H           0.7692    2.7810    2.0724 H     1    ESP         0.0025
      8 H           0.3239    2.9392    2.0724 H     1    ESP         0.0032
      8 H          -0.1477    2.9715    2.0724 H     1    ESP         0.0036
      8 H          -0.6104    2.8753    2.0724 H     1    ESP         0.0036
      8 H          -1.0301    2.6579    2.0724 H     1    ESP         0.0030
      8 H          -1.3755    2.3353    2.0724 H     1    ESP         0.0019
      8 H           1.2603    2.8571    1.7396 H     1    ESP         0.0036
      8 H           0.8682    3.1035    1.7396 H     1    ESP         0.0041
      8 H          -1.6463    2.5296    1.7396 H     1    ESP         0.0032
      8 H           1.2698    3.1842    1.3541 H     1    ESP         0.0052
      8 H           1.4997    3.2647    0.9276 H     1    ESP         0.0063
      8 H           1.2698    3.1842   -1.3459 H     1    ESP         0.0051
      8 H           1.2603    2.8571   -1.7314 H     1    ESP         0.0036
      8 H           0.8682    3.1035   -1.7314 H     1    ESP         0.0041
      8 H          -1.6463    2.5296   -1.7314 H     1    ESP         0.0031
      8 H           1.1554    2.5084   -2.0642 H     1    ESP         0.0020
      8 H           0.7692    2.7810   -2.0642 H     1    ESP         0.0025
      8 H           0.3239    2.9392   -2.0642 H     1    ESP         0.0031
      8 H          -0.1477    2.9715   -2.0642 H     1    ESP         0.0035
      8 H          -0.6104    2.8753   -2.0642 H     1    ESP         0.0035
      8 H          -1.0301    2.6579   -2.0642 H     1    ESP         0.0029
      8 H          -1.3755    2.3353   -2.0642 H     1    ESP         0.0018
      8 H           1.0049    2.1078   -2.3342 H     1    ESP         0.0004
      8 H           0.6458    2.4092   -2.3342 H     1    ESP         0.0010
      8 H           0.2052    2.5695   -2.3342 H     1    ESP         0.0015
      8 H          -0.2637    2.5695   -2.3342 H     1    ESP         0.0017
      8 H          -0.7042    2.4092   -2.3342 H     1    ESP         0.0014
      8 H          -1.0634    2.1078   -2.3342 H     1    ESP         0.0006
      8 H           0.7705    1.7017   -2.5331 H     1    ESP        -0.0012
      8 H           0.4325    2.0398   -2.5331 H     1    ESP        -0.0003
      8 H          -0.0292    2.1635   -2.5331 H     1    ESP         0.0001
      8 H          -0.4910    2.0398   -2.5331 H     1    ESP        -0.0001
      8 H           0.4396    1.2400   -2.6549 H     1    ESP        -0.0026
      8 H           0.2052    1.6461   -2.6549 H     1    ESP        -0.0015
      8 H          -0.2637    1.6461   -2.6549 H     1    ESP        -0.0013
      8 H          -0.0292    1.2400   -2.6959 H     1    ESP        -0.0024
      8 H           1.2420    0.7411    2.6969 H     1    ESP        -0.0032
      8 H           1.7109    0.7411    2.6559 H     1    ESP        -0.0029
      8 H           1.4765    1.1472    2.6559 H     1    ESP        -0.0019
      8 H           1.0076    1.1472    2.6559 H     1    ESP        -0.0024
      8 H           0.7732    0.7411    2.6559 H     1    ESP        -0.0037
      8 H           1.0076    0.3351    2.6559 H     1    ESP        -0.0046
      8 H           1.4765    0.3351    2.6559 H     1    ESP        -0.0044
      8 H           2.1655    0.7411    2.5340 H     1    ESP        -0.0025
      8 H           2.0418    1.2028    2.5340 H     1    ESP        -0.0010
      8 H           1.7038    1.5409    2.5340 H     1    ESP        -0.0004
      8 H           1.2420    1.6646    2.5340 H     1    ESP        -0.0007
      8 H           2.0418    0.2794    2.5340 H     1    ESP        -0.0044
      8 H           2.5920    0.7411    2.3351 H     1    ESP        -0.0020
      8 H           2.5106    1.2028    2.3351 H     1    ESP        -0.0004
      8 H           2.2762    1.6089    2.3351 H     1    ESP         0.0006
      8 H           1.9170    1.9102    2.3351 H     1    ESP         0.0010
      8 H           1.4765    2.0706    2.3351 H     1    ESP         0.0008
      8 H           2.5106    0.2794    2.3351 H     1    ESP        -0.0041
      8 H           2.9776    0.7411    2.0652 H     1    ESP        -0.0015
      8 H           2.9132    1.2094    2.0652 H     1    ESP         0.0004
      8 H           2.7249    1.6429    2.0652 H     1    ESP         0.0016
      8 H           2.4266    2.0095    2.0652 H     1    ESP         0.0023
      8 H           2.0405    2.2821    2.0652 H     1    ESP         0.0024
      8 H           1.5951    2.4403    2.0652 H     1    ESP         0.0022
      8 H           2.9132    0.2729    2.0652 H     1    ESP        -0.0039
      8 H           3.3103    0.7411    1.7324 H     1    ESP        -0.0009
      8 H           1.7023    2.7576    1.7324 H     1    ESP         0.0036
      8 H           3.2585    0.2809    1.7324 H     1    ESP        -0.0035
      8 H           1.6982    3.0345    1.3469 H     1    ESP         0.0049
      8 H           3.5354    0.2849    1.3469 H     1    ESP        -0.0031
      8 H           1.6982    3.0345   -1.3531 H     1    ESP         0.0049
      8 H           3.5354    0.2849   -1.3531 H     1    ESP        -0.0031
      8 H           3.3103    0.7411   -1.7387 H     1    ESP        -0.0010
      8 H           1.7023    2.7576   -1.7387 H     1    ESP         0.0036
      8 H           3.2585    0.2809   -1.7387 H     1    ESP        -0.0035
      8 H           2.9776    0.7411   -2.0714 H     1    ESP        -0.0015
      8 H           2.9132    1.2094   -2.0714 H     1    ESP         0.0003
      8 H           2.7249    1.6429   -2.0714 H     1    ESP         0.0016
      8 H           2.4266    2.0095   -2.0714 H     1    ESP         0.0022
      8 H           2.0405    2.2821   -2.0714 H     1    ESP         0.0024
      8 H           1.5951    2.4403   -2.0714 H     1    ESP         0.0022
      8 H           2.9132    0.2729   -2.0714 H     1    ESP        -0.0039
      8 H           2.5920    0.7411   -2.3414 H     1    ESP        -0.0021
      8 H           2.5106    1.2028   -2.3414 H     1    ESP        -0.0004
      8 H           2.2762    1.6089   -2.3414 H     1    ESP         0.0006
      8 H           1.9170    1.9102   -2.3414 H     1    ESP         0.0009
      8 H           1.4765    2.0706   -2.3414 H     1    ESP         0.0008
      8 H           2.5106    0.2794   -2.3414 H     1    ESP        -0.0042
      8 H           2.1655    0.7411   -2.5403 H     1    ESP        -0.0025
      8 H           2.0418    1.2028   -2.5403 H     1    ESP        -0.0011
      8 H           1.7038    1.5409   -2.5403 H     1    ESP        -0.0005
      8 H           1.2420    1.6646   -2.5403 H     1    ESP        -0.0007
      8 H           2.0418    0.2794   -2.5403 H     1    ESP        -0.0045
      8 H           1.7109    0.7411   -2.6621 H     1    ESP        -0.0029
      8 H           1.4765    1.1472   -2.6621 H     1    ESP        -0.0019
      8 H           1.0076    1.1472   -2.6621 H     1    ESP        -0.0024
      8 H           0.7732    0.7411   -2.6621 H     1    ESP        -0.0037
      8 H           1.0076    0.3351   -2.6621 H     1    ESP        -0.0047
      8 H           1.4765    0.3351   -2.6621 H     1    ESP        -0.0045
      8 H           1.2420    0.7411   -2.7031 H     1    ESP        -0.0033
      8 H           1.3546   -0.6324    2.6912 H     1    ESP        -0.0058
      8 H           1.8234   -0.6324    2.6501 H     1    ESP        -0.0060
      8 H           1.5890   -0.2263    2.6501 H     1    ESP        -0.0057
      8 H           1.1201   -0.2263    2.6501 H     1    ESP        -0.0057
      8 H           0.8857   -0.6324    2.6501 H     1    ESP        -0.0054
      8 H           1.1201   -1.0384    2.6501 H     1    ESP        -0.0053
      8 H           1.5890   -1.0384    2.6501 H     1    ESP        -0.0059
      8 H           2.2780   -0.6324    2.5283 H     1    ESP        -0.0062
      8 H           2.1543   -0.1706    2.5283 H     1    ESP        -0.0057
      8 H           1.3546   -1.5558    2.5283 H     1    ESP        -0.0050
      8 H           1.8163   -1.4321    2.5283 H     1    ESP        -0.0059
      8 H           2.1543   -1.0941    2.5283 H     1    ESP        -0.0063
      8 H           2.7046   -0.6324    2.3294 H     1    ESP        -0.0063
      8 H           2.6231   -0.1706    2.3294 H     1    ESP        -0.0056
      8 H           1.5890   -1.9619    2.3294 H     1    ESP        -0.0049
      8 H           2.0296   -1.8015    2.3294 H     1    ESP        -0.0059
      8 H           2.3887   -1.5001    2.3294 H     1    ESP        -0.0065
      8 H           2.6231   -1.0941    2.3294 H     1    ESP        -0.0066
      8 H           3.0901   -0.6324    2.0595 H     1    ESP        -0.0063
      8 H           3.0257   -0.1641    2.0595 H     1    ESP        -0.0054
      8 H           1.7077   -2.3316    2.0595 H     1    ESP        -0.0044
      8 H           2.1530   -2.1733    2.0595 H     1    ESP        -0.0057
      8 H           2.5391   -1.9008    2.0595 H     1    ESP        -0.0065
      8 H           2.8374   -1.5341    2.0595 H     1    ESP        -0.0069
      8 H           3.0257   -1.1006    2.0595 H     1    ESP        -0.0068
      8 H           3.4229   -0.6324    1.7267 H     1    ESP        -0.0063
      8 H           3.3710   -0.1721    1.7267 H     1    ESP        -0.0052
      8 H           1.8148   -2.6488    1.7267 H     1    ESP        -0.0039
      8 H           2.2520   -2.4959    1.7267 H     1    ESP        -0.0054
      8 H           2.6441   -2.2495    1.7267 H     1    ESP        -0.0064
      8 H           2.9716   -1.9219    1.7267 H     1    ESP        -0.0069
      8 H           3.2181   -1.5298    1.7267 H     1    ESP        -0.0071
      8 H           3.3710   -1.0926    1.7267 H     1    ESP        -0.0069
      8 H           3.6928   -0.6324    1.3412 H     1    ESP        -0.0062
      8 H           3.6479   -0.1762    1.3412 H     1    ESP        -0.0051
      8 H           1.8107   -2.9257    1.3412 H     1    ESP        -0.0029
      8 H           2.2494   -2.7927    1.3412 H     1    ESP        -0.0048
      8 H           2.6536   -2.5766    1.3412 H     1    ESP        -0.0061
      8 H           3.0080   -2.2858    1.3412 H     1    ESP        -0.0068
      8 H           3.2988   -1.9314    1.3412 H     1    ESP        -0.0072
      8 H           3.5148   -1.5272    1.3412 H     1    ESP        -0.0072
      8 H           3.6479   -1.0885    1.3412 H     1    ESP        -0.0069
      8 H           3.8917   -0.6324    0.9146 H     1    ESP        -0.0062
      8 H           3.8485   -0.1662    0.9146 H     1    ESP        -0.0049
      8 H           2.0489   -3.0727    0.9146 H     1    ESP        -0.0033
      8 H           2.4855   -2.9036    0.9146 H     1    ESP        -0.0052
      8 H           2.8835   -2.6571    0.9146 H     1    ESP        -0.0064
      8 H           3.2296   -2.3417    0.9146 H     1    ESP        -0.0070
      8 H           3.5117   -1.9680    0.9146 H     1    ESP        -0.0074
      8 H           3.7204   -1.5489    0.9146 H     1    ESP        -0.0073
      8 H           3.8485   -1.0986    0.9146 H     1    ESP        -0.0070
      8 H           4.0135   -0.6324    0.4600 H     1    ESP        -0.0062
      8 H           3.9731   -0.1706    0.4600 H     1    ESP        -0.0048
      8 H           2.2640   -3.1310    0.4600 H     1    ESP        -0.0039
      8 H           2.6841   -2.9351    0.4600 H     1    ESP        -0.0056
      8 H           3.0637   -2.6693    0.4600 H     1    ESP        -0.0066
      8 H           3.3915   -2.3415    0.4600 H     1    ESP        -0.0072
      8 H           3.6573   -1.9619    0.4600 H     1    ESP        -0.0074
      8 H           3.8532   -1.5418    0.4600 H     1    ESP        -0.0074
      8 H           3.9731   -1.0941    0.4600 H     1    ESP        -0.0070
      8 H           4.0546   -0.6324   -0.0088 H     1    ESP        -0.0061
      8 H           4.0157   -0.1761   -0.0088 H     1    ESP        -0.0048
      8 H           1.9234   -3.2718   -0.0088 H     1    ESP        -0.0018
      8 H           2.3613   -3.1377   -0.0088 H     1    ESP        -0.0042
      8 H           2.7702   -2.9315   -0.0088 H     1    ESP        -0.0058
      8 H           3.1384   -2.6592   -0.0088 H     1    ESP        -0.0067
      8 H           3.4553   -2.3286   -0.0088 H     1    ESP        -0.0073
      8 H           3.7117   -1.9491   -0.0088 H     1    ESP        -0.0075
      8 H           3.9003   -1.5319   -0.0088 H     1    ESP        -0.0074
      8 H           4.0157   -1.0887   -0.0088 H     1    ESP        -0.0070
      8 H           4.0135   -0.6324   -0.4777 H     1    ESP        -0.0062
      8 H           3.9731   -0.1706   -0.4777 H     1    ESP        -0.0048
      8 H           2.2640   -3.1310   -0.4777 H     1    ESP        -0.0039
      8 H           2.6841   -2.9351   -0.4777 H     1    ESP        -0.0056
      8 H           3.0637   -2.6693   -0.4777 H     1    ESP        -0.0066
      8 H           3.3915   -2.3415   -0.4777 H     1    ESP        -0.0072
      8 H           3.6573   -1.9619   -0.4777 H     1    ESP        -0.0075
      8 H           3.8532   -1.5418   -0.4777 H     1    ESP        -0.0074
      8 H           3.9731   -1.0941   -0.4777 H     1    ESP        -0.0070
      8 H           3.8917   -0.6324   -0.9323 H     1    ESP        -0.0062
      8 H           3.8485   -0.1662   -0.9323 H     1    ESP        -0.0049
      8 H           2.0489   -3.0727   -0.9323 H     1    ESP        -0.0033
      8 H           2.4855   -2.9036   -0.9323 H     1    ESP        -0.0052
      8 H           2.8835   -2.6571   -0.9323 H     1    ESP        -0.0064
      8 H           3.2296   -2.3417   -0.9323 H     1    ESP        -0.0071
      8 H           3.5117   -1.9680   -0.9323 H     1    ESP        -0.0074
      8 H           3.7204   -1.5489   -0.9323 H     1    ESP        -0.0073
      8 H           3.8485   -1.0986   -0.9323 H     1    ESP        -0.0070
      8 H           3.6928   -0.6324   -1.3588 H     1    ESP        -0.0063
      8 H           3.6479   -0.1762   -1.3588 H     1    ESP        -0.0051
      8 H           1.8107   -2.9257   -1.3588 H     1    ESP        -0.0029
      8 H           2.2494   -2.7927   -1.3588 H     1    ESP        -0.0048
      8 H           2.6536   -2.5766   -1.3588 H     1    ESP        -0.0061
      8 H           3.0080   -2.2858   -1.3588 H     1    ESP        -0.0068
      8 H           3.2988   -1.9314   -1.3588 H     1    ESP        -0.0072
      8 H           3.5148   -1.5272   -1.3588 H     1    ESP        -0.0073
      8 H           3.6479   -1.0885   -1.3588 H     1    ESP        -0.0070
      8 H           3.4229   -0.6324   -1.7444 H     1    ESP        -0.0063
      8 H           3.3710   -0.1721   -1.7444 H     1    ESP        -0.0053
      8 H           1.8148   -2.6488   -1.7444 H     1    ESP        -0.0039
      8 H           2.2520   -2.4959   -1.7444 H     1    ESP        -0.0054
      8 H           2.6441   -2.2495   -1.7444 H     1    ESP        -0.0064
      8 H           2.9716   -1.9219   -1.7444 H     1    ESP        -0.0070
      8 H           3.2181   -1.5298   -1.7444 H     1    ESP        -0.0071
      8 H           3.3710   -1.0926   -1.7444 H     1    ESP        -0.0069
      8 H           3.0901   -0.6324   -2.0772 H     1    ESP        -0.0063
      8 H           3.0257   -0.1641   -2.0772 H     1    ESP        -0.0054
      8 H           1.7077   -2.3316   -2.0772 H     1    ESP        -0.0044
      8 H           2.1530   -2.1733   -2.0772 H     1    ESP        -0.0057
      8 H           2.5391   -1.9008   -2.0772 H     1    ESP        -0.0065
      8 H           2.8374   -1.5341   -2.0772 H     1    ESP        -0.0069
      8 H           3.0257   -1.1006   -2.0772 H     1    ESP        -0.0068
      8 H           2.7046   -0.6324   -2.3471 H     1    ESP        -0.0063
      8 H           2.6231   -0.1706   -2.3471 H     1    ESP        -0.0056
      8 H           1.5890   -1.9619   -2.3471 H     1    ESP        -0.0049
      8 H           2.0296   -1.8015   -2.3471 H     1    ESP        -0.0059
      8 H           2.3887   -1.5001   -2.3471 H     1    ESP        -0.0065
      8 H           2.6231   -1.0941   -2.3471 H     1    ESP        -0.0067
      8 H           2.2780   -0.6324   -2.5460 H     1    ESP        -0.0062
      8 H           2.1543   -0.1706   -2.5460 H     1    ESP        -0.0057
      8 H           1.3546   -1.5558   -2.5460 H     1    ESP        -0.0051
      8 H           1.8163   -1.4321   -2.5460 H     1    ESP        -0.0059
      8 H           2.1543   -1.0941   -2.5460 H     1    ESP        -0.0064
      8 H           1.8234   -0.6324   -2.6678 H     1    ESP        -0.0061
      8 H           1.5890   -0.2263   -2.6678 H     1    ESP        -0.0058
      8 H           1.1201   -0.2263   -2.6678 H     1    ESP        -0.0057
      8 H           0.8857   -0.6324   -2.6678 H     1    ESP        -0.0054
      8 H           1.1201   -1.0384   -2.6678 H     1    ESP        -0.0053
      8 H           1.5890   -1.0384   -2.6678 H     1    ESP        -0.0059
      8 H           1.3546   -0.6324   -2.7088 H     1    ESP        -0.0058
      8 H           0.1769   -1.1831    2.6948 H     1    ESP        -0.0022
      8 H           0.6457   -1.1831    2.6537 H     1    ESP        -0.0037
      8 H           0.4113   -0.7771    2.6537 H     1    ESP        -0.0039
      8 H          -0.0576   -1.5892    2.6537 H     1    ESP        -0.0007
      8 H           0.4113   -1.5892    2.6537 H     1    ESP        -0.0019
      8 H          -0.2849   -1.9829    2.5319 H     1    ESP         0.0009
      8 H           0.1769   -2.1066    2.5319 H     1    ESP         0.0001
      8 H           0.6386   -1.9829    2.5319 H     1    ESP        -0.0016
      8 H           0.9766   -1.6449    2.5319 H     1    ESP        -0.0038
      8 H          -0.4981   -2.3523    2.3330 H     1    ESP         0.0024
      8 H          -0.0576   -2.5126    2.3330 H     1    ESP         0.0020
      8 H           0.4113   -2.5126    2.3330 H     1    ESP         0.0008
      8 H           0.8519   -2.3523    2.3330 H     1    ESP        -0.0011
      8 H           1.2110   -2.0509    2.3330 H     1    ESP        -0.0035
      8 H          -0.8240   -2.6010    2.0631 H     1    ESP         0.0039
      8 H          -0.4043   -2.8185    2.0631 H     1    ESP         0.0039
      8 H           0.0584   -2.9146    2.0631 H     1    ESP         0.0033
      8 H           0.5300   -2.8824    2.0631 H     1    ESP         0.0019
      8 H           0.9753   -2.7241    2.0631 H     1    ESP        -0.0002
      8 H           1.3614   -2.4515    2.0631 H     1    ESP        -0.0028
      8 H           1.0743   -3.0466    1.7303 H     1    ESP         0.0008
      8 H           1.4664   -2.8002    1.7303 H     1    ESP        -0.0018
      8 H           1.4759   -3.1273    1.3448 H     1    ESP        -0.0004
      8 H           1.4759   -3.1273   -1.3552 H     1    ESP        -0.0004
      8 H           1.0743   -3.0466   -1.7408 H     1    ESP         0.0008
      8 H           1.4664   -2.8002   -1.7408 H     1    ESP        -0.0019
      8 H          -0.8240   -2.6010   -2.0736 H     1    ESP         0.0039
      8 H          -0.4043   -2.8185   -2.0736 H     1    ESP         0.0039
      8 H           0.0584   -2.9146   -2.0736 H     1    ESP         0.0033
      8 H           0.5300   -2.8824   -2.0736 H     1    ESP         0.0019
      8 H           0.9753   -2.7241   -2.0736 H     1    ESP        -0.0002
      8 H           1.3614   -2.4515   -2.0736 H     1    ESP        -0.0028
      8 H          -0.4981   -2.3523   -2.3435 H     1    ESP         0.0024
      8 H          -0.0576   -2.5126   -2.3435 H     1    ESP         0.0020
      8 H           0.4113   -2.5126   -2.3435 H     1    ESP         0.0008
      8 H           0.8519   -2.3523   -2.3435 H     1    ESP        -0.0012
      8 H           1.2110   -2.0509   -2.3435 H     1    ESP        -0.0036
      8 H          -0.2849   -1.9829   -2.5424 H     1    ESP         0.0009
      8 H           0.1769   -2.1066   -2.5424 H     1    ESP         0.0001
      8 H           0.6386   -1.9829   -2.5424 H     1    ESP        -0.0016
      8 H           0.9766   -1.6449   -2.5424 H     1    ESP        -0.0038
      8 H           0.6457   -1.1831   -2.6642 H     1    ESP        -0.0038
      8 H           0.4113   -0.7771   -2.6642 H     1    ESP        -0.0040
      8 H          -0.0576   -1.5892   -2.6642 H     1    ESP        -0.0007
      8 H           0.4113   -1.5892   -2.6642 H     1    ESP        -0.0020
      8 H           0.1769   -1.1831   -2.7052 H     1    ESP        -0.0023
      8 H          -1.1716   -0.0655    3.1556 H     1    ESP        -0.0009
      8 H          -0.7233   -0.0655    3.1236 H     1    ESP        -0.0014
      8 H          -0.9475    0.3227    3.1236 H     1    ESP        -0.0013
      8 H          -1.3958    0.3227    3.1236 H     1    ESP        -0.0008
      8 H          -1.6199   -0.0655    3.1236 H     1    ESP        -0.0005
      8 H          -1.3958   -0.4537    3.1236 H     1    ESP        -0.0005
      8 H          -0.9475   -0.4537    3.1236 H     1    ESP        -0.0009
      8 H          -0.2842   -0.0655    3.0280 H     1    ESP        -0.0022
      8 H          -0.4030    0.3782    3.0280 H     1    ESP        -0.0021
      8 H          -0.7279    0.7031    3.0280 H     1    ESP        -0.0016
      8 H          -1.1716    0.8220    3.0280 H     1    ESP        -0.0010
      8 H          -1.6153    0.7031    3.0280 H     1    ESP        -0.0006
      8 H          -1.9402    0.3782    3.0280 H     1    ESP        -0.0004
      8 H          -2.0591   -0.0655    3.0280 H     1    ESP        -0.0002
      8 H          -1.9402   -0.5092    3.0280 H     1    ESP        -0.0001
      8 H          -1.6153   -0.8341    3.0280 H     1    ESP        -0.0000
      8 H          -1.1716   -0.9530    3.0280 H     1    ESP        -0.0002
      8 H          -0.7279   -0.8341    3.0280 H     1    ESP        -0.0009
      8 H          -0.4030   -0.5092    3.0280 H     1    ESP        -0.0017
      8 H           0.1369   -0.0655    2.8710 H     1    ESP        -0.0032
      8 H           0.0580    0.3821    2.8710 H     1    ESP        -0.0031
      8 H          -0.1692    0.7756    2.8710 H     1    ESP        -0.0025
      8 H          -0.5173    1.0678    2.8710 H     1    ESP        -0.0018
      8 H          -0.9444    1.2232    2.8710 H     1    ESP        -0.0011
      8 H          -1.3988    1.2232    2.8710 H     1    ESP        -0.0007
      8 H          -1.8259    1.0678    2.8710 H     1    ESP        -0.0004
      8 H          -2.1740    0.7756    2.8710 H     1    ESP        -0.0002
      8 H          -2.4013    0.3821    2.8710 H     1    ESP        -0.0001
      8 H          -2.4802   -0.0655    2.8710 H     1    ESP         0.0000
      8 H          -2.4013   -0.5130    2.8710 H     1    ESP         0.0002
      8 H          -2.1740   -0.9066    2.8710 H     1    ESP         0.0003
      8 H          -1.8259   -1.1987    2.8710 H     1    ESP         0.0004
      8 H          -1.3988   -1.3542    2.8710 H     1    ESP         0.0004
      8 H          -0.9444   -1.3542    2.8710 H     1    ESP         0.0001
      8 H          -0.5173   -1.1987    2.8710 H     1    ESP        -0.0006
      8 H          -0.1692   -0.9066    2.8710 H     1    ESP        -0.0018
      8 H           0.0580   -0.5130    2.8710 H     1    ESP        -0.0028
      8 H           0.5314   -0.0655    2.6556 H     1    ESP        -0.0048
      8 H           0.4683    0.3940    2.6556 H     1    ESP        -0.0043
      8 H           0.2835    0.8194    2.6556 H     1    ESP        -0.0035
      8 H          -0.8251    1.6019    2.6556 H     1    ESP        -0.0009
      8 H          -1.2878    1.6336    2.6556 H     1    ESP        -0.0004
      8 H          -1.7419    1.5392    2.6556 H     1    ESP        -0.0002
      8 H          -2.1537    1.3258    2.6556 H     1    ESP        -0.0001
      8 H          -2.4927    1.0093    2.6556 H     1    ESP        -0.0000
      8 H          -2.7336    0.6130    2.6556 H     1    ESP         0.0000
      8 H          -2.8588    0.1664    2.6556 H     1    ESP         0.0001
      8 H          -2.8588   -0.2974    2.6556 H     1    ESP         0.0003
      8 H          -2.7336   -0.7440    2.6556 H     1    ESP         0.0004
      8 H          -2.4927   -1.1402    2.6556 H     1    ESP         0.0006
      8 H          -2.1537   -1.4568    2.6556 H     1    ESP         0.0008
      8 H          -1.7419   -1.6702    2.6556 H     1    ESP         0.0010
      8 H          -1.2878   -1.7645    2.6556 H     1    ESP         0.0011
      8 H          -0.8251   -1.7329    2.6556 H     1    ESP         0.0008
      8 H          -0.3881   -1.5776    2.6556 H     1    ESP         0.0000
      8 H           0.4683   -0.5250    2.6556 H     1    ESP        -0.0044
      8 H          -1.1716    1.9973    2.3862 H     1    ESP         0.0004
      8 H          -1.6306    1.9456    2.3862 H     1    ESP         0.0005
      8 H          -2.0666    1.7930    2.3862 H     1    ESP         0.0004
      8 H          -2.4578    1.5473    2.3862 H     1    ESP         0.0003
      8 H          -2.7844    1.2206    2.3862 H     1    ESP         0.0002
      8 H          -3.0301    0.8295    2.3862 H     1    ESP         0.0002
      8 H          -3.1827    0.3935    2.3862 H     1    ESP         0.0002
      8 H          -3.2344   -0.0655    2.3862 H     1    ESP         0.0003
      8 H          -3.1827   -0.5245    2.3862 H     1    ESP         0.0004
      8 H          -3.0301   -0.9605    2.3862 H     1    ESP         0.0006
      8 H          -2.7844   -1.3516    2.3862 H     1    ESP         0.0008
      8 H          -2.4578   -1.6783    2.3862 H     1    ESP         0.0011
      8 H          -2.0666   -1.9240    2.3862 H     1    ESP         0.0015
      8 H          -1.6306   -2.0766    2.3862 H     1    ESP         0.0018
      8 H          -1.1716   -2.1283    2.3862 H     1    ESP         0.0021
      8 H          -0.7126   -2.0766    2.3862 H     1    ESP         0.0020
      8 H          -1.5104    2.2909    2.0684 H     1    ESP         0.0017
      8 H          -1.9502    2.1842    2.0684 H     1    ESP         0.0012
      8 H          -2.3619    1.9962    2.0684 H     1    ESP         0.0008
      8 H          -2.7306    1.7337    2.0684 H     1    ESP         0.0006
      8 H          -3.0429    1.4061    2.0684 H     1    ESP         0.0004
      8 H          -3.2876    1.0254    2.0684 H     1    ESP         0.0003
      8 H          -3.4558    0.6052    2.0684 H     1    ESP         0.0003
      8 H          -3.5414    0.1608    2.0684 H     1    ESP         0.0004
      8 H          -3.5414   -0.2918    2.0684 H     1    ESP         0.0005
      8 H          -3.4558   -0.7362    2.0684 H     1    ESP         0.0006
      8 H          -3.2876   -1.1564    2.0684 H     1    ESP         0.0008
      8 H          -3.0429   -1.5371    2.0684 H     1    ESP         0.0010
      8 H          -2.7306   -1.8646    2.0684 H     1    ESP         0.0014
      8 H          -2.3619   -2.1272    2.0684 H     1    ESP         0.0018
      8 H          -1.9502   -2.3152    2.0684 H     1    ESP         0.0024
      8 H          -1.5104   -2.4219    2.0684 H     1    ESP         0.0030
      8 H          -1.0583   -2.4434    2.0684 H     1    ESP         0.0037
      8 H          -1.9476    2.4683    1.7086 H     1    ESP         0.0025
      8 H          -2.3646    2.3007    1.7086 H     1    ESP         0.0016
      8 H          -2.7474    2.0651    1.7086 H     1    ESP         0.0010
      8 H          -3.0848    1.7681    1.7086 H     1    ESP         0.0007
      8 H          -3.3671    1.4184    1.7086 H     1    ESP         0.0005
      8 H          -3.5863    1.0260    1.7086 H     1    ESP         0.0004
      8 H          -3.7361    0.6022    1.7086 H     1    ESP         0.0004
      8 H          -3.8120    0.1592    1.7086 H     1    ESP         0.0004
      8 H          -3.8120   -0.2902    1.7086 H     1    ESP         0.0005
      8 H          -3.7361   -0.7332    1.7086 H     1    ESP         0.0007
      8 H          -3.5863   -1.1570    1.7086 H     1    ESP         0.0008
      8 H          -3.3671   -1.5494    1.7086 H     1    ESP         0.0011
      8 H          -3.0848   -1.8991    1.7086 H     1    ESP         0.0014
      8 H          -2.7474   -2.1960    1.7086 H     1    ESP         0.0018
      8 H          -2.3646   -2.4317    1.7086 H     1    ESP         0.0025
      8 H          -1.9476   -2.5993    1.7086 H     1    ESP         0.0033
      8 H          -1.5082   -2.6940    1.7086 H     1    ESP         0.0044
      8 H          -2.0570    2.6596    1.3142 H     1    ESP         0.0039
      8 H          -2.4724    2.4875    1.3142 H     1    ESP         0.0024
      8 H          -2.8558    2.2526    1.3142 H     1    ESP         0.0015
      8 H          -3.1977    1.9606    1.3142 H     1    ESP         0.0010
      8 H          -3.4897    1.6187    1.3142 H     1    ESP         0.0007
      8 H          -3.7246    1.2353    1.3142 H     1    ESP         0.0005
      8 H          -3.8967    0.8199    1.3142 H     1    ESP         0.0005
      8 H          -4.0017    0.3827    1.3142 H     1    ESP         0.0005
      8 H          -4.0369   -0.0655    1.3142 H     1    ESP         0.0005
      8 H          -4.0017   -0.5137    1.3142 H     1    ESP         0.0006
      8 H          -3.8967   -0.9509    1.3142 H     1    ESP         0.0008
      8 H          -3.7246   -1.3663    1.3142 H     1    ESP         0.0010
      8 H          -3.4897   -1.7497    1.3142 H     1    ESP         0.0012
      8 H          -3.1977   -2.0916    1.3142 H     1    ESP         0.0016
      8 H          -2.8558   -2.3836    1.3142 H     1    ESP         0.0021
      8 H          -2.4724   -2.6185    1.3142 H     1    ESP         0.0029
      8 H          -2.0570   -2.7906    1.3142 H     1    ESP         0.0039
      8 H          -1.6198   -2.8956    1.3142 H     1    ESP         0.0055
      8 H          -2.2758    2.7480    0.8931 H     1    ESP         0.0043
      8 H          -2.6828    2.5520    0.8931 H     1    ESP         0.0026
      8 H          -3.0560    2.2975    0.8931 H     1    ESP         0.0016
      8 H          -3.3872    1.9903    0.8931 H     1    ESP         0.0010
      8 H          -3.6688    1.6371    0.8931 H     1    ESP         0.0007
      8 H          -3.8947    1.2459    0.8931 H     1    ESP         0.0006
      8 H          -4.0597    0.8254    0.8931 H     1    ESP         0.0005
      8 H          -4.1603    0.3850    0.8931 H     1    ESP         0.0005
      8 H          -4.1940   -0.0655    0.8931 H     1    ESP         0.0006
      8 H          -4.1603   -0.5160    0.8931 H     1    ESP         0.0007
      8 H          -4.0597   -0.9564    0.8931 H     1    ESP         0.0008
      8 H          -3.8947   -1.3769    0.8931 H     1    ESP         0.0010
      8 H          -3.6688   -1.7681    0.8931 H     1    ESP         0.0013
      8 H          -3.3872   -2.1212    0.8931 H     1    ESP         0.0016
      8 H          -3.0560   -2.4285    0.8931 H     1    ESP         0.0021
      8 H          -2.6828   -2.6830    0.8931 H     1    ESP         0.0029
      8 H          -2.2758   -2.8790    0.8931 H     1    ESP         0.0040
      8 H          -1.8442   -3.0121    0.8931 H     1    ESP         0.0057
      8 H          -2.5973    2.7074    0.4539 H     1    ESP         0.0035
      8 H          -2.9858    2.4703    0.4539 H     1    ESP         0.0021
      8 H          -3.3357    2.1791    0.4539 H     1    ESP         0.0013
      8 H          -3.6394    1.8401    0.4539 H     1    ESP         0.0009
      8 H          -3.8906    1.4605    0.4539 H     1    ESP         0.0007
      8 H          -4.0838    1.0483    0.4539 H     1    ESP         0.0006
      8 H          -4.2150    0.6124    0.4539 H     1    ESP         0.0005
      8 H          -4.2812    0.1621    0.4539 H     1    ESP         0.0006
      8 H          -4.2812   -0.2931    0.4539 H     1    ESP         0.0006
      8 H          -4.2150   -0.7434    0.4539 H     1    ESP         0.0007
      8 H          -4.0838   -1.1793    0.4539 H     1    ESP         0.0009
      8 H          -3.8906   -1.5915    0.4539 H     1    ESP         0.0011
      8 H          -3.6394   -1.9711    0.4539 H     1    ESP         0.0014
      8 H          -3.3357   -2.3101    0.4539 H     1    ESP         0.0019
      8 H          -2.9858   -2.6013    0.4539 H     1    ESP         0.0025
      8 H          -2.5973   -2.8384    0.4539 H     1    ESP         0.0034
      8 H          -2.1783   -3.0164    0.4539 H     1    ESP         0.0049
      8 H          -2.4802    2.7998    0.0056 H     1    ESP         0.0044
      8 H          -2.8746    2.5845    0.0056 H     1    ESP         0.0026
      8 H          -3.2344    2.3151    0.0056 H     1    ESP         0.0016
      8 H          -3.5522    1.9973    0.0056 H     1    ESP         0.0011
      8 H          -3.8216    1.6375    0.0056 H     1    ESP         0.0008
      8 H          -4.0369    1.2431    0.0056 H     1    ESP         0.0006
      8 H          -4.1940    0.8220    0.0056 H     1    ESP         0.0005
      8 H          -4.2895    0.3828    0.0056 H     1    ESP         0.0005
      8 H          -4.3216   -0.0655    0.0056 H     1    ESP         0.0006
      8 H          -4.2895   -0.5138    0.0056 H     1    ESP         0.0007
      8 H          -4.1940   -0.9530    0.0056 H     1    ESP         0.0008
      8 H          -4.0369   -1.3741    0.0056 H     1    ESP         0.0010
      8 H          -3.8216   -1.7685    0.0056 H     1    ESP         0.0013
      8 H          -3.5522   -2.1283    0.0056 H     1    ESP         0.0016
      8 H          -3.2344   -2.4461    0.0056 H     1    ESP         0.0021
      8 H          -2.8746   -2.7154    0.0056 H     1    ESP         0.0029
      8 H          -2.4802   -2.9308    0.0056 H     1    ESP         0.0039
      8 H          -2.0591   -3.0879    0.0056 H     1    ESP         0.0057
      8 H          -2.5973    2.7074   -0.4427 H     1    ESP         0.0035
      8 H          -2.9858    2.4703   -0.4427 H     1    ESP         0.0021
      8 H          -3.3357    2.1791   -0.4427 H     1    ESP         0.0013
      8 H          -3.6394    1.8401   -0.4427 H     1    ESP         0.0009
      8 H          -3.8906    1.4605   -0.4427 H     1    ESP         0.0007
      8 H          -4.0838    1.0483   -0.4427 H     1    ESP         0.0006
      8 H          -4.2150    0.6124   -0.4427 H     1    ESP         0.0005
      8 H          -4.2812    0.1621   -0.4427 H     1    ESP         0.0006
      8 H          -4.2812   -0.2931   -0.4427 H     1    ESP         0.0006
      8 H          -4.2150   -0.7434   -0.4427 H     1    ESP         0.0007
      8 H          -4.0838   -1.1793   -0.4427 H     1    ESP         0.0009
      8 H          -3.8906   -1.5915   -0.4427 H     1    ESP         0.0011
      8 H          -3.6394   -1.9711   -0.4427 H     1    ESP         0.0015
      8 H          -3.3357   -2.3101   -0.4427 H     1    ESP         0.0019
      8 H          -2.9858   -2.6013   -0.4427 H     1    ESP         0.0025
      8 H          -2.5973   -2.8384   -0.4427 H     1    ESP         0.0035
      8 H          -2.1783   -3.0164   -0.4427 H     1    ESP         0.0049
      8 H          -2.2758    2.7480   -0.8818 H     1    ESP         0.0043
      8 H          -2.6828    2.5520   -0.8818 H     1    ESP         0.0025
      8 H          -3.0560    2.2975   -0.8818 H     1    ESP         0.0016
      8 H          -3.3872    1.9903   -0.8818 H     1    ESP         0.0010
      8 H          -3.6688    1.6371   -0.8818 H     1    ESP         0.0007
      8 H          -3.8947    1.2459   -0.8818 H     1    ESP         0.0006
      8 H          -4.0597    0.8254   -0.8818 H     1    ESP         0.0005
      8 H          -4.1603    0.3850   -0.8818 H     1    ESP         0.0005
      8 H          -4.1940   -0.0655   -0.8818 H     1    ESP         0.0006
      8 H          -4.1603   -0.5160   -0.8818 H     1    ESP         0.0007
      8 H          -4.0597   -0.9564   -0.8818 H     1    ESP         0.0008
      8 H          -3.8947   -1.3769   -0.8818 H     1    ESP         0.0010
      8 H          -3.6688   -1.7681   -0.8818 H     1    ESP         0.0013
      8 H          -3.3872   -2.1212   -0.8818 H     1    ESP         0.0016
      8 H          -3.0560   -2.4285   -0.8818 H     1    ESP         0.0022
      8 H          -2.6828   -2.6830   -0.8818 H     1    ESP         0.0029
      8 H          -2.2758   -2.8790   -0.8818 H     1    ESP         0.0041
      8 H          -1.8442   -3.0121   -0.8818 H     1    ESP         0.0058
      8 H          -2.0570    2.6596   -1.3029 H     1    ESP         0.0038
      8 H          -2.4724    2.4875   -1.3029 H     1    ESP         0.0023
      8 H          -2.8558    2.2526   -1.3029 H     1    ESP         0.0014
      8 H          -3.1977    1.9606   -1.3029 H     1    ESP         0.0009
      8 H          -3.4897    1.6187   -1.3029 H     1    ESP         0.0007
      8 H          -3.7246    1.2353   -1.3029 H     1    ESP         0.0005
      8 H          -3.8967    0.8199   -1.3029 H     1    ESP         0.0005
      8 H          -4.0017    0.3827   -1.3029 H     1    ESP         0.0005
      8 H          -4.0369   -0.0655   -1.3029 H     1    ESP         0.0005
      8 H          -4.0017   -0.5137   -1.3029 H     1    ESP         0.0006
      8 H          -3.8967   -0.9509   -1.3029 H     1    ESP         0.0008
      8 H          -3.7246   -1.3663   -1.3029 H     1    ESP         0.0010
      8 H          -3.4897   -1.7497   -1.3029 H     1    ESP         0.0013
      8 H          -3.1977   -2.0916   -1.3029 H     1    ESP         0.0016
      8 H          -2.8558   -2.3836   -1.3029 H     1    ESP         0.0022
      8 H          -2.4724   -2.6185   -1.3029 H     1    ESP         0.0029
      8 H          -2.0570   -2.7906   -1.3029 H     1    ESP         0.0040
      8 H          -1.6198   -2.8956   -1.3029 H     1    ESP         0.0056
      8 H          -1.9476    2.4683   -1.6974 H     1    ESP         0.0025
      8 H          -2.3646    2.3007   -1.6974 H     1    ESP         0.0016
      8 H          -2.7474    2.0651   -1.6974 H     1    ESP         0.0010
      8 H          -3.0848    1.7681   -1.6974 H     1    ESP         0.0007
      8 H          -3.3671    1.4184   -1.6974 H     1    ESP         0.0005
      8 H          -3.5863    1.0260   -1.6974 H     1    ESP         0.0004
      8 H          -3.7361    0.6022   -1.6974 H     1    ESP         0.0004
      8 H          -3.8120    0.1592   -1.6974 H     1    ESP         0.0004
      8 H          -3.8120   -0.2902   -1.6974 H     1    ESP         0.0005
      8 H          -3.7361   -0.7332   -1.6974 H     1    ESP         0.0007
      8 H          -3.5863   -1.1570   -1.6974 H     1    ESP         0.0008
      8 H          -3.3671   -1.5494   -1.6974 H     1    ESP         0.0011
      8 H          -3.0848   -1.8991   -1.6974 H     1    ESP         0.0014
      8 H          -2.7474   -2.1960   -1.6974 H     1    ESP         0.0019
      8 H          -2.3646   -2.4317   -1.6974 H     1    ESP         0.0025
      8 H          -1.9476   -2.5993   -1.6974 H     1    ESP         0.0033
      8 H          -1.5082   -2.6940   -1.6974 H     1    ESP         0.0045
      8 H          -1.5104    2.2909   -2.0572 H     1    ESP         0.0016
      8 H          -1.9502    2.1842   -2.0572 H     1    ESP         0.0012
      8 H          -2.3619    1.9962   -2.0572 H     1    ESP         0.0008
      8 H          -2.7306    1.7337   -2.0572 H     1    ESP         0.0005
      8 H          -3.0429    1.4061   -2.0572 H     1    ESP         0.0004
      8 H          -3.2876    1.0254   -2.0572 H     1    ESP         0.0003
      8 H          -3.4558    0.6052   -2.0572 H     1    ESP         0.0003
      8 H          -3.5414    0.1608   -2.0572 H     1    ESP         0.0004
      8 H          -3.5414   -0.2918   -2.0572 H     1    ESP         0.0005
      8 H          -3.4558   -0.7362   -2.0572 H     1    ESP         0.0006
      8 H          -3.2876   -1.1564   -2.0572 H     1    ESP         0.0008
      8 H          -3.0429   -1.5371   -2.0572 H     1    ESP         0.0010
      8 H          -2.7306   -1.8646   -2.0572 H     1    ESP         0.0014
      8 H          -2.3619   -2.1272   -2.0572 H     1    ESP         0.0018
      8 H          -1.9502   -2.3152   -2.0572 H     1    ESP         0.0024
      8 H          -1.5104   -2.4219   -2.0572 H     1    ESP         0.0031
      8 H          -1.0583   -2.4434   -2.0572 H     1    ESP         0.0038
      8 H          -1.1716    1.9973   -2.3750 H     1    ESP         0.0003
      8 H          -1.6306    1.9456   -2.3750 H     1    ESP         0.0004
      8 H          -2.0666    1.7930   -2.3750 H     1    ESP         0.0003
      8 H          -2.4578    1.5473   -2.3750 H     1    ESP         0.0002
      8 H          -2.7844    1.2206   -2.3750 H     1    ESP         0.0002
      8 H          -3.0301    0.8295   -2.3750 H     1    ESP         0.0002
      8 H          -3.1827    0.3935   -2.3750 H     1    ESP         0.0002
      8 H          -3.2344   -0.0655   -2.3750 H     1    ESP         0.0003
      8 H          -3.1827   -0.5245   -2.3750 H     1    ESP         0.0004
      8 H          -3.0301   -0.9605   -2.3750 H     1    ESP         0.0006
      8 H          -2.7844   -1.3516   -2.3750 H     1    ESP         0.0008
      8 H          -2.4578   -1.6783   -2.3750 H     1    ESP         0.0011
      8 H          -2.0666   -1.9240   -2.3750 H     1    ESP         0.0015
      8 H          -1.6306   -2.0766   -2.3750 H     1    ESP         0.0019
      8 H          -1.1716   -2.1283   -2.3750 H     1    ESP         0.0022
      8 H           0.5314   -0.0655   -2.6443 H     1    ESP        -0.0049
      8 H           0.4683    0.3940   -2.6443 H     1    ESP        -0.0044
      8 H          -0.8251    1.6019   -2.6443 H     1    ESP        -0.0009
      8 H          -1.2878    1.6336   -2.6443 H     1    ESP        -0.0004
      8 H          -1.7419    1.5392   -2.6443 H     1    ESP        -0.0002
      8 H          -2.1537    1.3258   -2.6443 H     1    ESP        -0.0001
      8 H          -2.4927    1.0093   -2.6443 H     1    ESP        -0.0000
      8 H          -2.7336    0.6130   -2.6443 H     1    ESP         0.0000
      8 H          -2.8588    0.1664   -2.6443 H     1    ESP         0.0001
      8 H          -2.8588   -0.2974   -2.6443 H     1    ESP         0.0002
      8 H          -2.7336   -0.7440   -2.6443 H     1    ESP         0.0004
      8 H          -2.4927   -1.1402   -2.6443 H     1    ESP         0.0006
      8 H          -2.1537   -1.4568   -2.6443 H     1    ESP         0.0008
      8 H          -1.7419   -1.6702   -2.6443 H     1    ESP         0.0010
      8 H          -1.2878   -1.7645   -2.6443 H     1    ESP         0.0011
      8 H          -0.8251   -1.7329   -2.6443 H     1    ESP         0.0009
      8 H          -0.3881   -1.5776   -2.6443 H     1    ESP         0.0000
      8 H           0.4683   -0.5250   -2.6443 H     1    ESP        -0.0046
      8 H           0.1369   -0.0655   -2.8597 H     1    ESP        -0.0033
      8 H           0.0580    0.3821   -2.8597 H     1    ESP        -0.0031
      8 H          -0.1692    0.7756   -2.8597 H     1    ESP        -0.0026
      8 H          -0.5173    1.0678   -2.8597 H     1    ESP        -0.0019
      8 H          -0.9444    1.2232   -2.8597 H     1    ESP        -0.0012
      8 H          -1.3988    1.2232   -2.8597 H     1    ESP        -0.0007
      8 H          -1.8259    1.0678   -2.8597 H     1    ESP        -0.0004
      8 H          -2.1740    0.7756   -2.8597 H     1    ESP        -0.0003
      8 H          -2.4013    0.3821   -2.8597 H     1    ESP        -0.0001
      8 H          -2.4802   -0.0655   -2.8597 H     1    ESP         0.0000
      8 H          -2.4013   -0.5130   -2.8597 H     1    ESP         0.0002
      8 H          -2.1740   -0.9066   -2.8597 H     1    ESP         0.0003
      8 H          -1.8259   -1.1987   -2.8597 H     1    ESP         0.0004
      8 H          -1.3988   -1.3542   -2.8597 H     1    ESP         0.0004
      8 H          -0.9444   -1.3542   -2.8597 H     1    ESP         0.0001
      8 H          -0.5173   -1.1987   -2.8597 H     1    ESP        -0.0007
      8 H          -0.1692   -0.9066   -2.8597 H     1    ESP        -0.0018
      8 H           0.0580   -0.5130   -2.8597 H     1    ESP        -0.0029
      8 H          -0.2842   -0.0655   -3.0168 H     1    ESP        -0.0022
      8 H          -0.4030    0.3782   -3.0168 H     1    ESP        -0.0021
      8 H          -0.7279    0.7031   -3.0168 H     1    ESP        -0.0016
      8 H          -1.1716    0.8220   -3.0168 H     1    ESP        -0.0011
      8 H          -1.6153    0.7031   -3.0168 H     1    ESP        -0.0007
      8 H          -1.9402    0.3782   -3.0168 H     1    ESP        -0.0004
      8 H          -2.0591   -0.0655   -3.0168 H     1    ESP        -0.0002
      8 H          -1.9402   -0.5092   -3.0168 H     1    ESP        -0.0001
      8 H          -1.6153   -0.8341   -3.0168 H     1    ESP        -0.0000
      8 H          -1.1716   -0.9530   -3.0168 H     1    ESP        -0.0003
      8 H          -0.7279   -0.8341   -3.0168 H     1    ESP        -0.0009
      8 H          -0.4030   -0.5092   -3.0168 H     1    ESP        -0.0017
      8 H          -0.7233   -0.0655   -3.1123 H     1    ESP        -0.0015
      8 H          -0.9475    0.3227   -3.1123 H     1    ESP        -0.0013
      8 H          -1.3958    0.3227   -3.1123 H     1    ESP        -0.0008
      8 H          -1.6199   -0.0655   -3.1123 H     1    ESP        -0.0005
      8 H          -1.3958   -0.4537   -3.1123 H     1    ESP        -0.0005
      8 H          -0.9475   -0.4537   -3.1123 H     1    ESP        -0.0009
      8 H          -1.1716   -0.0655   -3.1444 H     1    ESP        -0.0009
      8 H          -0.3489    3.1515    1.9823 H     1    ESP         0.0043
      8 H          -0.7882    3.0338    1.9823 H     1    ESP         0.0041
      8 H           0.2170    3.4095    1.7565 H     1    ESP         0.0050
      8 H          -0.2318    3.5371    1.7565 H     1    ESP         0.0052
      8 H          -0.6964    3.4941    1.7565 H     1    ESP         0.0052
      8 H          -1.1140    3.2861    1.7565 H     1    ESP         0.0049
      8 H          -1.4284    2.9413    1.7565 H     1    ESP         0.0042
      8 H           0.7023    3.4861    1.4543 H     1    ESP         0.0055
      8 H           0.3179    3.7331    1.4543 H     1    ESP         0.0057
      8 H          -0.1205    3.8618    1.4543 H     1    ESP         0.0059
      8 H          -0.5774    3.8618    1.4543 H     1    ESP         0.0059
      8 H          -1.0157    3.7331    1.4543 H     1    ESP         0.0057
      8 H          -1.4001    3.4861    1.4543 H     1    ESP         0.0054
      8 H          -1.6993    3.1408    1.4543 H     1    ESP         0.0048
      8 H          -1.8891    2.7252    1.4543 H     1    ESP         0.0040
      8 H           1.0147    3.5535    1.0890 H     1    ESP         0.0062
      8 H           0.6534    3.8524    1.0890 H     1    ESP         0.0062
      8 H           0.2291    4.0520    1.0890 H     1    ESP         0.0063
      8 H          -0.2315    4.1399    1.0890 H     1    ESP         0.0063
      8 H          -0.6994    4.1104    1.0890 H     1    ESP         0.0063
      8 H          -1.1454    3.9655    1.0890 H     1    ESP         0.0061
      8 H          -1.5413    3.7143    1.0890 H     1    ESP         0.0058
      8 H          -1.8623    3.3725    1.0890 H     1    ESP         0.0054
      8 H          -2.0882    2.9616    1.0890 H     1    ESP         0.0047
      8 H           1.2572    3.5538    0.6765 H     1    ESP         0.0068
      8 H           0.9319    3.8790    0.6765 H     1    ESP         0.0066
      8 H           0.5424    4.1238    0.6765 H     1    ESP         0.0066
      8 H           0.1082    4.2757    0.6765 H     1    ESP         0.0066
      8 H          -0.3489    4.3272    0.6765 H     1    ESP         0.0066
      8 H          -0.8060    4.2757    0.6765 H     1    ESP         0.0065
      8 H          -1.2402    4.1238    0.6765 H     1    ESP         0.0064
      8 H          -1.6297    3.8790    0.6765 H     1    ESP         0.0061
      8 H          -1.9550    3.5538    0.6765 H     1    ESP         0.0057
      8 H          -2.1998    3.1643    0.6765 H     1    ESP         0.0052
      8 H           1.3612    3.5730    0.2348 H     1    ESP         0.0072
      8 H           1.0418    3.9102    0.2348 H     1    ESP         0.0068
      8 H           0.6573    4.1709    0.2348 H     1    ESP         0.0067
      8 H           0.2258    4.3428    0.2348 H     1    ESP         0.0067
      8 H          -0.2326    4.4180    0.2348 H     1    ESP         0.0067
      8 H          -0.6965    4.3928    0.2348 H     1    ESP         0.0067
      8 H          -1.1440    4.2685    0.2348 H     1    ESP         0.0066
      8 H          -1.5544    4.0510    0.2348 H     1    ESP         0.0063
      8 H          -1.9085    3.7502    0.2348 H     1    ESP         0.0060
      8 H          -2.1896    3.3804    0.2348 H     1    ESP         0.0055
      8 H          -2.3846    2.9589    0.2348 H     1    ESP         0.0049
      8 H           1.3612    3.5730   -0.2168 H     1    ESP         0.0073
      8 H           1.0418    3.9102   -0.2168 H     1    ESP         0.0068
      8 H           0.6573    4.1709   -0.2168 H     1    ESP         0.0067
      8 H           0.2258    4.3428   -0.2168 H     1    ESP         0.0067
      8 H          -0.2326    4.4180   -0.2168 H     1    ESP         0.0067
      8 H          -0.6965    4.3928   -0.2168 H     1    ESP         0.0067
      8 H          -1.1440    4.2685   -0.2168 H     1    ESP         0.0066
      8 H          -1.5544    4.0510   -0.2168 H     1    ESP         0.0063
      8 H          -1.9085    3.7502   -0.2168 H     1    ESP         0.0060
      8 H          -2.1896    3.3804   -0.2168 H     1    ESP         0.0055
      8 H          -2.3846    2.9589   -0.2168 H     1    ESP         0.0049
      8 H           1.2572    3.5538   -0.6585 H     1    ESP         0.0068
      8 H           0.9319    3.8790   -0.6585 H     1    ESP         0.0066
      8 H           0.5424    4.1238   -0.6585 H     1    ESP         0.0066
      8 H           0.1082    4.2757   -0.6585 H     1    ESP         0.0066
      8 H          -0.3489    4.3272   -0.6585 H     1    ESP         0.0066
      8 H          -0.8060    4.2757   -0.6585 H     1    ESP         0.0065
      8 H          -1.2402    4.1238   -0.6585 H     1    ESP         0.0064
      8 H          -1.6297    3.8790   -0.6585 H     1    ESP         0.0061
      8 H          -1.9550    3.5538   -0.6585 H     1    ESP         0.0057
      8 H          -2.1998    3.1643   -0.6585 H     1    ESP         0.0051
      8 H           1.0147    3.5535   -1.0710 H     1    ESP         0.0062
      8 H           0.6534    3.8524   -1.0710 H     1    ESP         0.0062
      8 H           0.2291    4.0520   -1.0710 H     1    ESP         0.0063
      8 H          -0.2315    4.1399   -1.0710 H     1    ESP         0.0063
      8 H          -0.6994    4.1104   -1.0710 H     1    ESP         0.0063
      8 H          -1.1454    3.9655   -1.0710 H     1    ESP         0.0061
      8 H          -1.5413    3.7143   -1.0710 H     1    ESP         0.0058
      8 H          -1.8623    3.3725   -1.0710 H     1    ESP         0.0053
      8 H          -2.0882    2.9616   -1.0710 H     1    ESP         0.0047
      8 H           0.7023    3.4861   -1.4363 H     1    ESP         0.0055
      8 H           0.3179    3.7331   -1.4363 H     1    ESP         0.0057
      8 H          -0.1205    3.8618   -1.4363 H     1    ESP         0.0058
      8 H          -0.5774    3.8618   -1.4363 H     1    ESP         0.0058
      8 H          -1.0157    3.7331   -1.4363 H     1    ESP         0.0057
      8 H          -1.4001    3.4861   -1.4363 H     1    ESP         0.0054
      8 H          -1.6993    3.1408   -1.4363 H     1    ESP         0.0048
      8 H          -1.8891    2.7252   -1.4363 H     1    ESP         0.0040
      8 H           0.2170    3.4095   -1.7385 H     1    ESP         0.0050
      8 H          -0.2318    3.5371   -1.7385 H     1    ESP         0.0052
      8 H          -0.6964    3.4941   -1.7385 H     1    ESP         0.0051
      8 H          -1.1140    3.2861   -1.7385 H     1    ESP         0.0048
      8 H          -1.4284    2.9413   -1.7385 H     1    ESP         0.0042
      8 H          -0.3489    3.1515   -1.9643 H     1    ESP         0.0043
      8 H          -0.7882    3.0338   -1.9643 H     1    ESP         0.0041
      8 H           3.0219    1.3433    1.9680 H     1    ESP         0.0010
      8 H           2.9042    1.7826    1.9680 H     1    ESP         0.0021
      8 H           2.5826    2.1042    1.9680 H     1    ESP         0.0027
      8 H           3.4130    1.3433    1.7422 H     1    ESP         0.0013
      8 H           3.3272    1.8020    1.7422 H     1    ESP         0.0023
      8 H           3.0816    2.1987    1.7422 H     1    ESP         0.0029
      8 H           2.7093    2.4798    1.7422 H     1    ESP         0.0034
      8 H           2.2605    2.6075    1.7422 H     1    ESP         0.0037
      8 H           3.3272    0.8847    1.7422 H     1    ESP        -0.0003
      8 H           3.7485    1.3433    1.4401 H     1    ESP         0.0014
      8 H           3.6835    1.7956    1.4401 H     1    ESP         0.0024
      8 H           3.4937    2.2112    1.4401 H     1    ESP         0.0030
      8 H           3.1945    2.5565    1.4401 H     1    ESP         0.0035
      8 H           2.8102    2.8035    1.4401 H     1    ESP         0.0039
      8 H           2.3718    2.9322    1.4401 H     1    ESP         0.0043
      8 H           1.9149    2.9322    1.4401 H     1    ESP         0.0046
      8 H           3.6835    0.8911    1.4401 H     1    ESP         0.0001
      8 H           4.0140    1.3433    1.0748 H     1    ESP         0.0016
      8 H           3.9552    1.8085    1.0748 H     1    ESP         0.0025
      8 H           3.7826    2.2445    1.0748 H     1    ESP         0.0031
      8 H           3.5070    2.6239    1.0748 H     1    ESP         0.0036
      8 H           3.1457    2.9227    1.0748 H     1    ESP         0.0040
      8 H           2.7214    3.1224    1.0748 H     1    ESP         0.0044
      8 H           2.2608    3.2103    1.0748 H     1    ESP         0.0049
      8 H           1.7928    3.1808    1.0748 H     1    ESP         0.0056
      8 H           3.7826    0.4422    1.0748 H     1    ESP        -0.0017
      8 H           3.9552    0.8781    1.0748 H     1    ESP         0.0003
      8 H           4.1976    1.3433    0.6622 H     1    ESP         0.0017
      8 H           4.1461    1.8004    0.6622 H     1    ESP         0.0025
      8 H           3.9942    2.2346    0.6622 H     1    ESP         0.0031
      8 H           3.7494    2.6242    0.6622 H     1    ESP         0.0036
      8 H           3.4242    2.9494    0.6622 H     1    ESP         0.0040
      8 H           3.0347    3.1942    0.6622 H     1    ESP         0.0044
      8 H           2.6005    3.3461    0.6622 H     1    ESP         0.0048
      8 H           2.1433    3.3976    0.6622 H     1    ESP         0.0054
      8 H           1.6862    3.3461    0.6622 H     1    ESP         0.0065
      8 H           3.9942    0.4520    0.6622 H     1    ESP        -0.0014
      8 H           4.1461    0.8862    0.6622 H     1    ESP         0.0005
      8 H           4.2915    1.3433    0.2205 H     1    ESP         0.0017
      8 H           4.2413    1.8051    0.2205 H     1    ESP         0.0025
      8 H           4.0930    2.2453    0.2205 H     1    ESP         0.0031
      8 H           3.8535    2.6433    0.2205 H     1    ESP         0.0036
      8 H           3.5340    2.9806    0.2205 H     1    ESP         0.0040
      8 H           3.1496    3.2413    0.2205 H     1    ESP         0.0044
      8 H           2.7180    3.4132    0.2205 H     1    ESP         0.0048
      8 H           2.2596    3.4883    0.2205 H     1    ESP         0.0054
      8 H           1.7958    3.4632    0.2205 H     1    ESP         0.0065
      8 H           4.0930    0.4413    0.2205 H     1    ESP        -0.0013
      8 H           4.2413    0.8815    0.2205 H     1    ESP         0.0005
      8 H           4.2915    1.3433   -0.2310 H     1    ESP         0.0017
      8 H           4.2413    1.8051   -0.2310 H     1    ESP         0.0025
      8 H           4.0930    2.2453   -0.2310 H     1    ESP         0.0031
      8 H           3.8535    2.6433   -0.2310 H     1    ESP         0.0036
      8 H           3.5340    2.9806   -0.2310 H     1    ESP         0.0040
      8 H           3.1496    3.2413   -0.2310 H     1    ESP         0.0044
      8 H           2.7180    3.4132   -0.2310 H     1    ESP         0.0048
      8 H           2.2596    3.4883   -0.2310 H     1    ESP         0.0054
      8 H           1.7958    3.4632   -0.2310 H     1    ESP         0.0065
      8 H           4.0930    0.4413   -0.2310 H     1    ESP        -0.0013
      8 H           4.2413    0.8815   -0.2310 H     1    ESP         0.0005
      8 H           4.1976    1.3433   -0.6727 H     1    ESP         0.0016
      8 H           4.1461    1.8004   -0.6727 H     1    ESP         0.0025
      8 H           3.9942    2.2346   -0.6727 H     1    ESP         0.0031
      8 H           3.7494    2.6242   -0.6727 H     1    ESP         0.0036
      8 H           3.4242    2.9494   -0.6727 H     1    ESP         0.0040
      8 H           3.0347    3.1942   -0.6727 H     1    ESP         0.0044
      8 H           2.6005    3.3461   -0.6727 H     1    ESP         0.0048
      8 H           2.1433    3.3976   -0.6727 H     1    ESP         0.0054
      8 H           1.6862    3.3461   -0.6727 H     1    ESP         0.0064
      8 H           3.9942    0.4520   -0.6727 H     1    ESP        -0.0014
      8 H           4.1461    0.8862   -0.6727 H     1    ESP         0.0004
      8 H           4.0140    1.3433   -1.0852 H     1    ESP         0.0016
      8 H           3.9552    1.8085   -1.0852 H     1    ESP         0.0024
      8 H           3.7826    2.2445   -1.0852 H     1    ESP         0.0031
      8 H           3.5070    2.6239   -1.0852 H     1    ESP         0.0036
      8 H           3.1457    2.9227   -1.0852 H     1    ESP         0.0040
      8 H           2.7214    3.1224   -1.0852 H     1    ESP         0.0044
      8 H           2.2608    3.2103   -1.0852 H     1    ESP         0.0049
      8 H           1.7928    3.1808   -1.0852 H     1    ESP         0.0055
      8 H           3.7826    0.4422   -1.0852 H     1    ESP        -0.0018
      8 H           3.9552    0.8781   -1.0852 H     1    ESP         0.0003
      8 H           3.7485    1.3433   -1.4506 H     1    ESP         0.0014
      8 H           3.6835    1.7956   -1.4506 H     1    ESP         0.0023
      8 H           3.4937    2.2112   -1.4506 H     1    ESP         0.0030
      8 H           3.1945    2.5565   -1.4506 H     1    ESP         0.0035
      8 H           2.8102    2.8035   -1.4506 H     1    ESP         0.0039
      8 H           2.3718    2.9322   -1.4506 H     1    ESP         0.0042
      8 H           1.9149    2.9322   -1.4506 H     1    ESP         0.0046
      8 H           3.6835    0.8911   -1.4506 H     1    ESP         0.0001
      8 H           3.4130    1.3433   -1.7527 H     1    ESP         0.0012
      8 H           3.3272    1.8020   -1.7527 H     1    ESP         0.0022
      8 H           3.0816    2.1987   -1.7527 H     1    ESP         0.0029
      8 H           2.7093    2.4798   -1.7527 H     1    ESP         0.0034
      8 H           2.2605    2.6075   -1.7527 H     1    ESP         0.0036
      8 H           3.3272    0.8847   -1.7527 H     1    ESP        -0.0003
      8 H           3.0219    1.3433   -1.9785 H     1    ESP         0.0010
      8 H           2.9042    1.7826   -1.9785 H     1    ESP         0.0020
      8 H           2.5826    2.1042   -1.9785 H     1    ESP         0.0026
      8 H          -0.4328   -3.0147    1.9649 H     1    ESP         0.0043
      8 H           0.0065   -3.1324    1.9649 H     1    ESP         0.0037
      8 H           0.4458   -3.0147    1.9649 H     1    ESP         0.0027
      8 H          -1.0729   -2.9222    1.7391 H     1    ESP         0.0051
      8 H          -0.7586   -3.2670    1.7391 H     1    ESP         0.0049
      8 H          -0.3409   -3.4750    1.7391 H     1    ESP         0.0046
      8 H           0.1237   -3.5180    1.7391 H     1    ESP         0.0040
      8 H           0.5724   -3.3903    1.7391 H     1    ESP         0.0030
      8 H           0.9448   -3.1091    1.7391 H     1    ESP         0.0015
      8 H          -1.3439   -3.1216    1.4370 H     1    ESP         0.0055
      8 H          -1.0447   -3.4669    1.4370 H     1    ESP         0.0054
      8 H          -0.6603   -3.7139    1.4370 H     1    ESP         0.0051
      8 H          -0.2219   -3.8427    1.4370 H     1    ESP         0.0047
      8 H           0.2349   -3.8427    1.4370 H     1    ESP         0.0041
      8 H           0.6733   -3.7139    1.4370 H     1    ESP         0.0033
      8 H           1.0577   -3.4669    1.4370 H     1    ESP         0.0021
      8 H          -1.5069   -3.3533    1.0716 H     1    ESP         0.0057
      8 H          -1.1859   -3.6951    1.0716 H     1    ESP         0.0056
      8 H          -0.7900   -3.9464    1.0716 H     1    ESP         0.0053
      8 H          -0.3440   -4.0913    1.0716 H     1    ESP         0.0050
      8 H           0.1240   -4.1207    1.0716 H     1    ESP         0.0045
      8 H           0.5846   -4.0329    1.0716 H     1    ESP         0.0039
      8 H           1.0088   -3.8332    1.0716 H     1    ESP         0.0029
      8 H           1.3701   -3.5343    1.0716 H     1    ESP         0.0014
      8 H          -1.8443   -3.1451    0.6591 H     1    ESP         0.0060
      8 H          -1.5996   -3.5346    0.6591 H     1    ESP         0.0059
      8 H          -1.2743   -3.8599    0.6591 H     1    ESP         0.0057
      8 H          -0.8848   -4.1047    0.6591 H     1    ESP         0.0055
      8 H          -0.4506   -4.2566    0.6591 H     1    ESP         0.0052
      8 H           0.0065   -4.3081    0.6591 H     1    ESP         0.0048
      8 H           0.4636   -4.2566    0.6591 H     1    ESP         0.0042
      8 H           0.8978   -4.1047    0.6591 H     1    ESP         0.0035
      8 H           1.2873   -3.8599    0.6591 H     1    ESP         0.0023
      8 H           1.6126   -3.5346    0.6591 H     1    ESP         0.0006
      8 H          -1.8342   -3.3613    0.2174 H     1    ESP         0.0060
      8 H          -1.5531   -3.7311    0.2174 H     1    ESP         0.0059
      8 H          -1.1990   -4.0318    0.2174 H     1    ESP         0.0057
      8 H          -0.7886   -4.2494    0.2174 H     1    ESP         0.0055
      8 H          -0.3410   -4.3737    0.2174 H     1    ESP         0.0052
      8 H           0.1228   -4.3988    0.2174 H     1    ESP         0.0047
      8 H           0.5812   -4.3237    0.2174 H     1    ESP         0.0042
      8 H           1.0127   -4.1517    0.2174 H     1    ESP         0.0033
      8 H           1.3972   -3.8911    0.2174 H     1    ESP         0.0021
      8 H           1.7166   -3.5538    0.2174 H     1    ESP         0.0003
      8 H          -1.8342   -3.3613   -0.2341 H     1    ESP         0.0060
      8 H          -1.5531   -3.7311   -0.2341 H     1    ESP         0.0059
      8 H          -1.1990   -4.0318   -0.2341 H     1    ESP         0.0057
      8 H          -0.7886   -4.2494   -0.2341 H     1    ESP         0.0055
      8 H          -0.3410   -4.3737   -0.2341 H     1    ESP         0.0052
      8 H           0.1228   -4.3988   -0.2341 H     1    ESP         0.0047
      8 H           0.5812   -4.3237   -0.2341 H     1    ESP         0.0042
      8 H           1.0127   -4.1517   -0.2341 H     1    ESP         0.0033
      8 H           1.3972   -3.8911   -0.2341 H     1    ESP         0.0021
      8 H           1.7166   -3.5538   -0.2341 H     1    ESP         0.0003
      8 H          -1.8443   -3.1451   -0.6758 H     1    ESP         0.0060
      8 H          -1.5996   -3.5346   -0.6758 H     1    ESP         0.0059
      8 H          -1.2743   -3.8599   -0.6758 H     1    ESP         0.0057
      8 H          -0.8848   -4.1047   -0.6758 H     1    ESP         0.0055
      8 H          -0.4506   -4.2566   -0.6758 H     1    ESP         0.0052
      8 H           0.0065   -4.3081   -0.6758 H     1    ESP         0.0048
      8 H           0.4636   -4.2566   -0.6758 H     1    ESP         0.0042
      8 H           0.8978   -4.1047   -0.6758 H     1    ESP         0.0035
      8 H           1.2873   -3.8599   -0.6758 H     1    ESP         0.0023
      8 H           1.6126   -3.5346   -0.6758 H     1    ESP         0.0006
      8 H          -1.5069   -3.3533   -1.0884 H     1    ESP         0.0057
      8 H          -1.1859   -3.6951   -1.0884 H     1    ESP         0.0056
      8 H          -0.7900   -3.9464   -1.0884 H     1    ESP         0.0053
      8 H          -0.3440   -4.0913   -1.0884 H     1    ESP         0.0050
      8 H           0.1240   -4.1207   -1.0884 H     1    ESP         0.0045
      8 H           0.5846   -4.0329   -1.0884 H     1    ESP         0.0038
      8 H           1.0088   -3.8332   -1.0884 H     1    ESP         0.0029
      8 H           1.3701   -3.5343   -1.0884 H     1    ESP         0.0014
      8 H          -1.3439   -3.1216   -1.4537 H     1    ESP         0.0055
      8 H          -1.0447   -3.4669   -1.4537 H     1    ESP         0.0053
      8 H          -0.6603   -3.7139   -1.4537 H     1    ESP         0.0051
      8 H          -0.2219   -3.8427   -1.4537 H     1    ESP         0.0047
      8 H           0.2349   -3.8427   -1.4537 H     1    ESP         0.0041
      8 H           0.6733   -3.7139   -1.4537 H     1    ESP         0.0033
      8 H           1.0577   -3.4669   -1.4537 H     1    ESP         0.0020
      8 H          -1.0729   -2.9222   -1.7558 H     1    ESP         0.0051
      8 H          -0.7586   -3.2670   -1.7558 H     1    ESP         0.0049
      8 H          -0.3409   -3.4750   -1.7558 H     1    ESP         0.0046
      8 H           0.1237   -3.5180   -1.7558 H     1    ESP         0.0040
      8 H           0.5724   -3.3903   -1.7558 H     1    ESP         0.0030
      8 H           0.9448   -3.1091   -1.7558 H     1    ESP         0.0015
      8 H          -0.4328   -3.0147   -1.9816 H     1    ESP         0.0043
      8 H           0.0065   -3.1324   -1.9816 H     1    ESP         0.0037
      8 H           0.4458   -3.0147   -1.9816 H     1    ESP         0.0026
      8 H           0.4179    1.2400    2.9706 H     1    ESP        -0.0018
      8 H           0.1943    1.6272    2.9706 H     1    ESP        -0.0011
      8 H          -0.2528    1.6272    2.9706 H     1    ESP        -0.0009
      8 H           0.7366    1.6822    2.8708 H     1    ESP        -0.0010
      8 H           0.4129    2.0058    2.8708 H     1    ESP        -0.0003
      8 H          -0.0292    2.1243    2.8708 H     1    ESP        -0.0001
      8 H          -0.4714    2.0058    2.8708 H     1    ESP        -0.0002
      8 H           0.9679    2.0767    2.7070 H     1    ESP        -0.0000
      8 H           0.6216    2.3673    2.7070 H     1    ESP         0.0005
      8 H           0.1968    2.5219    2.7070 H     1    ESP         0.0008
      8 H          -0.2553    2.5219    2.7070 H     1    ESP         0.0009
      8 H          -0.6801    2.3673    2.7070 H     1    ESP         0.0007
      8 H           1.1242    2.4751    2.4828 H     1    ESP         0.0011
      8 H           0.7483    2.7405    2.4828 H     1    ESP         0.0014
      8 H           0.3146    2.8946    2.4828 H     1    ESP         0.0018
      8 H          -0.1446    2.9260    2.4828 H     1    ESP         0.0020
      8 H          -0.5952    2.8324    2.4828 H     1    ESP         0.0019
      8 H          -1.0038    2.6207    2.4828 H     1    ESP         0.0016
      8 H           1.2430    2.8354    2.2033 H     1    ESP         0.0021
      8 H           0.8561    3.0785    2.2033 H     1    ESP         0.0024
      8 H           0.4248    3.2294    2.2033 H     1    ESP         0.0028
      8 H          -0.0292    3.2805    2.2033 H     1    ESP         0.0031
      8 H          -0.9146    3.0785    2.2033 H     1    ESP         0.0030
      8 H          -1.3015    2.8354    2.2033 H     1    ESP         0.0025
      8 H           1.2738    3.1902    1.8746 H     1    ESP         0.0032
      8 H           0.8683    3.4070    1.8746 H     1    ESP         0.0035
      8 H           1.2698    3.4900    1.5041 H     1    ESP         0.0041
      8 H           1.5572    3.5383    1.1001 H     1    ESP         0.0048
      8 H           1.5572    3.5383   -1.0919 H     1    ESP         0.0048
      8 H           1.2698    3.4900   -1.4959 H     1    ESP         0.0041
      8 H           1.2738    3.1902   -1.8664 H     1    ESP         0.0031
      8 H           0.8683    3.4070   -1.8664 H     1    ESP         0.0034
      8 H           1.2430    2.8354   -2.1951 H     1    ESP         0.0021
      8 H           0.8561    3.0785   -2.1951 H     1    ESP         0.0024
      8 H           0.4248    3.2294   -2.1951 H     1    ESP         0.0027
      8 H          -0.0292    3.2805   -2.1951 H     1    ESP         0.0030
      8 H          -0.4833    3.2294   -2.1951 H     1    ESP         0.0031
      8 H          -0.9146    3.0785   -2.1951 H     1    ESP         0.0029
      8 H          -1.3015    2.8354   -2.1951 H     1    ESP         0.0024
      8 H           1.1242    2.4751   -2.4746 H     1    ESP         0.0010
      8 H           0.7483    2.7405   -2.4746 H     1    ESP         0.0014
      8 H           0.3146    2.8946   -2.4746 H     1    ESP         0.0017
      8 H          -0.1446    2.9260   -2.4746 H     1    ESP         0.0019
      8 H          -0.5952    2.8324   -2.4746 H     1    ESP         0.0018
      8 H          -1.0038    2.6207   -2.4746 H     1    ESP         0.0015
      8 H           0.9679    2.0767   -2.6988 H     1    ESP        -0.0000
      8 H           0.6216    2.3673   -2.6988 H     1    ESP         0.0004
      8 H           0.1968    2.5219   -2.6988 H     1    ESP         0.0007
      8 H          -0.2553    2.5219   -2.6988 H     1    ESP         0.0008
      8 H          -0.6801    2.3673   -2.6988 H     1    ESP         0.0006
      8 H           0.7366    1.6822   -2.8626 H     1    ESP        -0.0010
      8 H           0.4129    2.0058   -2.8626 H     1    ESP        -0.0004
      8 H          -0.0292    2.1243   -2.8626 H     1    ESP        -0.0001
      8 H          -0.4714    2.0058   -2.8626 H     1    ESP        -0.0002
      8 H           0.4179    1.2400   -2.9624 H     1    ESP        -0.0019
      8 H           0.1943    1.6272   -2.9624 H     1    ESP        -0.0011
      8 H          -0.2528    1.6272   -2.9624 H     1    ESP        -0.0010
      8 H           1.2420    0.7411    2.9969 H     1    ESP        -0.0025
      8 H           1.6892    0.7411    2.9634 H     1    ESP        -0.0023
      8 H           1.4656    1.1283    2.9634 H     1    ESP        -0.0016
      8 H           1.0185    1.1283    2.9634 H     1    ESP        -0.0019
      8 H           0.7949    0.7411    2.9634 H     1    ESP        -0.0027
      8 H           1.0185    0.3539    2.9634 H     1    ESP        -0.0034
      8 H           1.4656    0.3539    2.9634 H     1    ESP        -0.0033
      8 H           2.1263    0.7411    2.8636 H     1    ESP        -0.0021
      8 H           2.0078    1.1832    2.8636 H     1    ESP        -0.0012
      8 H           1.6842    1.5069    2.8636 H     1    ESP        -0.0007
      8 H           1.2420    1.6254    2.8636 H     1    ESP        -0.0008
      8 H           2.0078    0.2990    2.8636 H     1    ESP        -0.0033
      8 H           2.5437    0.7411    2.6998 H     1    ESP        -0.0019
      8 H           2.4652    1.1863    2.6998 H     1    ESP        -0.0008
      8 H           2.2392    1.5778    2.6998 H     1    ESP        -0.0001
      8 H           1.8929    1.8684    2.6998 H     1    ESP         0.0002
      8 H           1.4681    2.0230    2.6998 H     1    ESP         0.0002
      8 H           2.4652    0.2959    2.6998 H     1    ESP        -0.0032
      8 H           2.9320    0.7411    2.4756 H     1    ESP        -0.0016
      8 H           2.8693    1.1971    2.4756 H     1    ESP        -0.0004
      8 H           2.6860    1.6192    2.4756 H     1    ESP         0.0004
      8 H           2.3955    1.9762    2.4756 H     1    ESP         0.0009
      8 H           2.0195    2.2416    2.4756 H     1    ESP         0.0011
      8 H           1.5859    2.3957    2.4756 H     1    ESP         0.0011
      8 H           2.8693    0.2852    2.4756 H     1    ESP        -0.0031
      8 H           3.2825    0.7411    2.1960 H     1    ESP        -0.0013
      8 H           3.2314    1.1952    2.1960 H     1    ESP        -0.0000
      8 H           3.0805    1.6265    2.1960 H     1    ESP         0.0009
      8 H           2.8374    2.0134    2.1960 H     1    ESP         0.0016
      8 H           2.5143    2.3365    2.1960 H     1    ESP         0.0019
      8 H           2.1274    2.5796    2.1960 H     1    ESP         0.0020
      8 H           1.6961    2.7305    2.1960 H     1    ESP         0.0021
      8 H           3.2314    0.2871    2.1960 H     1    ESP        -0.0029
      8 H           3.5875    0.7411    1.8673 H     1    ESP        -0.0010
      8 H           2.1396    2.9081    1.8673 H     1    ESP         0.0029
      8 H           1.6996    3.0415    1.8673 H     1    ESP         0.0030
      8 H           3.5425    0.2835    1.8673 H     1    ESP        -0.0027
      8 H           1.6932    3.2997    1.4969 H     1    ESP         0.0039
      8 H           3.8006    0.2900    1.4969 H     1    ESP        -0.0024
      8 H           1.6996    3.6299    0.6644 H     1    ESP         0.0053
      8 H           1.6996    3.6299   -0.6707 H     1    ESP         0.0053
      8 H           1.6932    3.2997   -1.5031 H     1    ESP         0.0039
      8 H           3.8006    0.2900   -1.5031 H     1    ESP        -0.0025
      8 H           3.5875    0.7411   -1.8736 H     1    ESP        -0.0010
      8 H           2.1396    2.9081   -1.8736 H     1    ESP         0.0029
      8 H           1.6996    3.0415   -1.8736 H     1    ESP         0.0030
      8 H           3.5425    0.2835   -1.8736 H     1    ESP        -0.0027
      8 H           3.2825    0.7411   -2.2023 H     1    ESP        -0.0014
      8 H           3.2314    1.1952   -2.2023 H     1    ESP        -0.0001
      8 H           3.0805    1.6265   -2.2023 H     1    ESP         0.0009
      8 H           2.5143    2.3365   -2.2023 H     1    ESP         0.0019
      8 H           2.1274    2.5796   -2.2023 H     1    ESP         0.0020
      8 H           1.6961    2.7305   -2.2023 H     1    ESP         0.0020
      8 H           3.2314    0.2871   -2.2023 H     1    ESP        -0.0029
      8 H           2.9320    0.7411   -2.4818 H     1    ESP        -0.0017
      8 H           2.8693    1.1971   -2.4818 H     1    ESP        -0.0005
      8 H           2.6860    1.6192   -2.4818 H     1    ESP         0.0004
      8 H           2.3955    1.9762   -2.4818 H     1    ESP         0.0009
      8 H           2.0195    2.2416   -2.4818 H     1    ESP         0.0011
      8 H           1.5859    2.3957   -2.4818 H     1    ESP         0.0011
      8 H           2.8693    0.2852   -2.4818 H     1    ESP        -0.0031
      8 H           2.5437    0.7411   -2.7060 H     1    ESP        -0.0019
      8 H           2.4652    1.1863   -2.7060 H     1    ESP        -0.0009
      8 H           2.2392    1.5778   -2.7060 H     1    ESP        -0.0002
      8 H           1.8929    1.8684   -2.7060 H     1    ESP         0.0002
      8 H           1.4681    2.0230   -2.7060 H     1    ESP         0.0002
      8 H           1.0160    2.0230   -2.7060 H     1    ESP        -0.0001
      8 H           2.4652    0.2959   -2.7060 H     1    ESP        -0.0033
      8 H           2.1263    0.7411   -2.8698 H     1    ESP        -0.0022
      8 H           2.0078    1.1832   -2.8698 H     1    ESP        -0.0012
      8 H           1.6842    1.5069   -2.8698 H     1    ESP        -0.0008
      8 H           1.2420    1.6254   -2.8698 H     1    ESP        -0.0008
      8 H           0.7999    1.5069   -2.8698 H     1    ESP        -0.0014
      8 H           2.0078    0.2990   -2.8698 H     1    ESP        -0.0034
      8 H           1.6892    0.7411   -2.9696 H     1    ESP        -0.0024
      8 H           1.4656    1.1283   -2.9696 H     1    ESP        -0.0017
      8 H           1.0185    1.1283   -2.9696 H     1    ESP        -0.0019
      8 H           0.7949    0.7411   -2.9696 H     1    ESP        -0.0028
      8 H           1.0185    0.3539   -2.9696 H     1    ESP        -0.0034
      8 H           1.4656    0.3539   -2.9696 H     1    ESP        -0.0033
      8 H           1.2420    0.7411   -3.0031 H     1    ESP        -0.0026
      8 H           1.3546   -0.6324    2.9912 H     1    ESP        -0.0042
      8 H           1.8017   -0.6324    2.9576 H     1    ESP        -0.0044
      8 H           1.5781   -0.2451    2.9576 H     1    ESP        -0.0042
      8 H           1.1310   -0.2451    2.9576 H     1    ESP        -0.0041
      8 H           0.9074   -0.6324    2.9576 H     1    ESP        -0.0039
      8 H           1.1310   -1.0196    2.9576 H     1    ESP        -0.0039
      8 H           1.5781   -1.0196    2.9576 H     1    ESP        -0.0042
      8 H           2.2388   -0.6324    2.8579 H     1    ESP        -0.0045
      8 H           2.1204   -0.1902    2.8579 H     1    ESP        -0.0042
      8 H           1.3546   -1.5166    2.8579 H     1    ESP        -0.0037
      8 H           1.7967   -1.3982    2.8579 H     1    ESP        -0.0043
      8 H           2.1204   -1.0745    2.8579 H     1    ESP        -0.0046
      8 H           2.6562   -0.6324    2.6941 H     1    ESP        -0.0046
      8 H           2.5777   -0.1872    2.6941 H     1    ESP        -0.0041
      8 H           1.5806   -1.9142    2.6941 H     1    ESP        -0.0036
      8 H           2.0054   -1.7596    2.6941 H     1    ESP        -0.0043
      8 H           2.3517   -1.4691    2.6941 H     1    ESP        -0.0047
      8 H           2.5777   -1.0776    2.6941 H     1    ESP        -0.0048
      8 H           3.0445   -0.6324    2.4699 H     1    ESP        -0.0046
      8 H           2.9819   -0.1764    2.4699 H     1    ESP        -0.0041
      8 H           1.6984   -2.2870    2.4699 H     1    ESP        -0.0034
      8 H           2.1321   -2.1329    2.4699 H     1    ESP        -0.0042
      8 H           2.5080   -1.8675    2.4699 H     1    ESP        -0.0047
      8 H           2.7985   -1.5104    2.4699 H     1    ESP        -0.0049
      8 H           2.9819   -1.0883    2.4699 H     1    ESP        -0.0049
      8 H           3.3951   -0.6324    2.1903 H     1    ESP        -0.0046
      8 H           3.3439   -0.1783    2.1903 H     1    ESP        -0.0040
      8 H           1.8086   -2.6217    2.1903 H     1    ESP        -0.0030
      8 H           2.2399   -2.4708    2.1903 H     1    ESP        -0.0040
      8 H           2.6268   -2.2277    2.1903 H     1    ESP        -0.0046
      8 H           2.9499   -1.9046    2.1903 H     1    ESP        -0.0050
      8 H           3.1930   -1.5177    2.1903 H     1    ESP        -0.0051
      8 H           3.3439   -1.0864    2.1903 H     1    ESP        -0.0050
      8 H           3.7001   -0.6324    1.8616 H     1    ESP        -0.0046
      8 H           3.6550   -0.1748    1.8616 H     1    ESP        -0.0039
      8 H           1.8121   -2.9328    1.8616 H     1    ESP        -0.0024
      8 H           2.2521   -2.7993    1.8616 H     1    ESP        -0.0036
      8 H           2.6576   -2.5826    1.8616 H     1    ESP        -0.0044
      8 H           3.0131   -2.2909    1.8616 H     1    ESP        -0.0050
      8 H           3.3048   -1.9355    1.8616 H     1    ESP        -0.0052
      8 H           3.5215   -1.5300    1.8616 H     1    ESP        -0.0053
      8 H           3.6550   -1.0900    1.8616 H     1    ESP        -0.0051
      8 H           3.9526   -0.6324    1.4912 H     1    ESP        -0.0046
      8 H           3.9132   -0.1812    1.4912 H     1    ESP        -0.0038
      8 H           2.2432   -3.0738    1.4912 H     1    ESP        -0.0031
      8 H           2.6536   -2.8824    1.4912 H     1    ESP        -0.0041
      8 H           3.0246   -2.6226    1.4912 H     1    ESP        -0.0048
      8 H           3.3448   -2.3024    1.4912 H     1    ESP        -0.0052
      8 H           3.6046   -1.9314    1.4912 H     1    ESP        -0.0054
      8 H           3.7960   -1.5210    1.4912 H     1    ESP        -0.0053
      8 H           3.9132   -1.0835    1.4912 H     1    ESP        -0.0051
      8 H           4.1472   -0.6324    1.0872 H     1    ESP        -0.0045
      8 H           4.1110   -0.1844    1.0872 H     1    ESP        -0.0037
      8 H           4.0035    0.2520    1.0872 H     1    ESP        -0.0024
      8 H           2.1315   -3.3147    1.0872 H     1    ESP        -0.0023
      8 H           2.5517   -3.1554    1.0872 H     1    ESP        -0.0036
      8 H           2.9409   -2.9307    1.0872 H     1    ESP        -0.0045
      8 H           3.2891   -2.6464    1.0872 H     1    ESP        -0.0050
      8 H           3.5871   -2.3100    1.0872 H     1    ESP        -0.0054
      8 H           3.8273   -1.9302    1.0872 H     1    ESP        -0.0055
      8 H           4.0035   -1.5167    1.0872 H     1    ESP        -0.0054
      8 H           4.1110   -1.0803    1.0872 H     1    ESP        -0.0051
      8 H           4.2793   -0.6324    0.6587 H     1    ESP        -0.0045
      8 H           4.2433   -0.1748    0.6587 H     1    ESP        -0.0036
      8 H           2.2584   -3.4140    0.6587 H     1    ESP        -0.0024
      8 H           2.6824   -3.2384    0.6587 H     1    ESP        -0.0037
      8 H           3.0737   -2.9986    0.6587 H     1    ESP        -0.0046
      8 H           3.4227   -2.7005    0.6587 H     1    ESP        -0.0051
      8 H           3.7208   -2.3515    0.6587 H     1    ESP        -0.0054
      8 H           3.9606   -1.9602    0.6587 H     1    ESP        -0.0055
      8 H           4.1362   -1.5362    0.6587 H     1    ESP        -0.0054
      8 H           4.2433   -1.0899    0.6587 H     1    ESP        -0.0051
      8 H           4.3462   -0.6324    0.2153 H     1    ESP        -0.0045
      8 H           4.3111   -0.1757    0.2153 H     1    ESP        -0.0035
      8 H           2.3658   -3.4479    0.2153 H     1    ESP        -0.0026
      8 H           2.7837   -3.2605    0.2153 H     1    ESP        -0.0038
      8 H           3.1682   -3.0116    0.2153 H     1    ESP        -0.0047
      8 H           3.5101   -2.7069    0.2153 H     1    ESP        -0.0052
      8 H           3.8015   -2.3535    0.2153 H     1    ESP        -0.0055
      8 H           4.0355   -1.9598    0.2153 H     1    ESP        -0.0056
      8 H           4.2068   -1.5350    0.2153 H     1    ESP        -0.0054
      8 H           4.3111   -1.0890    0.2153 H     1    ESP        -0.0051
      8 H           4.3462   -0.6324   -0.2330 H     1    ESP        -0.0045
      8 H           4.3111   -0.1757   -0.2330 H     1    ESP        -0.0035
      8 H           2.3658   -3.4479   -0.2330 H     1    ESP        -0.0026
      8 H           2.7837   -3.2605   -0.2330 H     1    ESP        -0.0038
      8 H           3.1682   -3.0116   -0.2330 H     1    ESP        -0.0047
      8 H           3.5101   -2.7069   -0.2330 H     1    ESP        -0.0052
      8 H           3.8015   -2.3535   -0.2330 H     1    ESP        -0.0055
      8 H           4.0355   -1.9598   -0.2330 H     1    ESP        -0.0056
      8 H           4.2068   -1.5350   -0.2330 H     1    ESP        -0.0054
      8 H           4.3111   -1.0890   -0.2330 H     1    ESP        -0.0051
      8 H           4.2793   -0.6324   -0.6764 H     1    ESP        -0.0045
      8 H           4.2433   -0.1748   -0.6764 H     1    ESP        -0.0036
      8 H           2.2584   -3.4140   -0.6764 H     1    ESP        -0.0024
      8 H           2.6824   -3.2384   -0.6764 H     1    ESP        -0.0037
      8 H           3.0737   -2.9986   -0.6764 H     1    ESP        -0.0046
      8 H           3.4227   -2.7005   -0.6764 H     1    ESP        -0.0051
      8 H           3.7208   -2.3515   -0.6764 H     1    ESP        -0.0054
      8 H           3.9606   -1.9602   -0.6764 H     1    ESP        -0.0055
      8 H           4.1362   -1.5362   -0.6764 H     1    ESP        -0.0054
      8 H           4.2433   -1.0899   -0.6764 H     1    ESP        -0.0051
      8 H           4.1472   -0.6324   -1.1049 H     1    ESP        -0.0045
      8 H           4.1110   -0.1844   -1.1049 H     1    ESP        -0.0037
      8 H           4.0035    0.2520   -1.1049 H     1    ESP        -0.0024
      8 H           2.1315   -3.3147   -1.1049 H     1    ESP        -0.0023
      8 H           2.5517   -3.1554   -1.1049 H     1    ESP        -0.0036
      8 H           2.9409   -2.9307   -1.1049 H     1    ESP        -0.0045
      8 H           3.2891   -2.6464   -1.1049 H     1    ESP        -0.0050
      8 H           3.5871   -2.3100   -1.1049 H     1    ESP        -0.0054
      8 H           3.8273   -1.9302   -1.1049 H     1    ESP        -0.0055
      8 H           4.0035   -1.5167   -1.1049 H     1    ESP        -0.0054
      8 H           4.1110   -1.0803   -1.1049 H     1    ESP        -0.0051
      8 H           3.9526   -0.6324   -1.5088 H     1    ESP        -0.0046
      8 H           3.9132   -0.1812   -1.5088 H     1    ESP        -0.0038
      8 H           3.7960    0.2562   -1.5088 H     1    ESP        -0.0026
      8 H           2.2432   -3.0738   -1.5088 H     1    ESP        -0.0031
      8 H           2.6536   -2.8824   -1.5088 H     1    ESP        -0.0041
      8 H           3.0246   -2.6226   -1.5088 H     1    ESP        -0.0048
      8 H           3.3448   -2.3024   -1.5088 H     1    ESP        -0.0052
      8 H           3.6046   -1.9314   -1.5088 H     1    ESP        -0.0054
      8 H           3.7960   -1.5210   -1.5088 H     1    ESP        -0.0053
      8 H           3.9132   -1.0835   -1.5088 H     1    ESP        -0.0051
      8 H           3.7001   -0.6324   -1.8793 H     1    ESP        -0.0046
      8 H           3.6550   -0.1748   -1.8793 H     1    ESP        -0.0039
      8 H           1.8121   -2.9328   -1.8793 H     1    ESP        -0.0024
      8 H           2.2521   -2.7993   -1.8793 H     1    ESP        -0.0036
      8 H           2.6576   -2.5826   -1.8793 H     1    ESP        -0.0044
      8 H           3.0131   -2.2909   -1.8793 H     1    ESP        -0.0050
      8 H           3.3048   -1.9355   -1.8793 H     1    ESP        -0.0052
      8 H           3.5215   -1.5300   -1.8793 H     1    ESP        -0.0053
      8 H           3.6550   -1.0900   -1.8793 H     1    ESP        -0.0051
      8 H           3.3951   -0.6324   -2.2080 H     1    ESP        -0.0046
      8 H           3.3439   -0.1783   -2.2080 H     1    ESP        -0.0040
      8 H           1.8086   -2.6217   -2.2080 H     1    ESP        -0.0031
      8 H           2.2399   -2.4708   -2.2080 H     1    ESP        -0.0040
      8 H           2.6268   -2.2277   -2.2080 H     1    ESP        -0.0047
      8 H           2.9499   -1.9046   -2.2080 H     1    ESP        -0.0050
      8 H           3.1930   -1.5177   -2.2080 H     1    ESP        -0.0051
      8 H           3.3439   -1.0864   -2.2080 H     1    ESP        -0.0050
      8 H           3.0445   -0.6324   -2.4876 H     1    ESP        -0.0046
      8 H           2.9819   -0.1764   -2.4876 H     1    ESP        -0.0041
      8 H           1.6984   -2.2870   -2.4876 H     1    ESP        -0.0034
      8 H           2.1321   -2.1329   -2.4876 H     1    ESP        -0.0042
      8 H           2.5080   -1.8675   -2.4876 H     1    ESP        -0.0047
      8 H           2.7985   -1.5104   -2.4876 H     1    ESP        -0.0050
      8 H           2.9819   -1.0883   -2.4876 H     1    ESP        -0.0049
      8 H           2.6562   -0.6324   -2.7118 H     1    ESP        -0.0046
      8 H           2.5777   -0.1872   -2.7118 H     1    ESP        -0.0042
      8 H           1.5806   -1.9142   -2.7118 H     1    ESP        -0.0037
      8 H           2.0054   -1.7596   -2.7118 H     1    ESP        -0.0043
      8 H           2.3517   -1.4691   -2.7118 H     1    ESP        -0.0047
      8 H           2.5777   -1.0776   -2.7118 H     1    ESP        -0.0048
      8 H           2.2388   -0.6324   -2.8756 H     1    ESP        -0.0045
      8 H           2.1204   -0.1902   -2.8756 H     1    ESP        -0.0042
      8 H           1.3546   -1.5166   -2.8756 H     1    ESP        -0.0038
      8 H           1.7967   -1.3982   -2.8756 H     1    ESP        -0.0043
      8 H           2.1204   -1.0745   -2.8756 H     1    ESP        -0.0046
      8 H           1.8017   -0.6324   -2.9753 H     1    ESP        -0.0044
      8 H           1.5781   -0.2451   -2.9753 H     1    ESP        -0.0042
      8 H           1.1310   -0.2451   -2.9753 H     1    ESP        -0.0041
      8 H           0.9074   -0.6324   -2.9753 H     1    ESP        -0.0039
      8 H           1.1310   -1.0196   -2.9753 H     1    ESP        -0.0039
      8 H           1.5781   -1.0196   -2.9753 H     1    ESP        -0.0043
      8 H           1.3546   -0.6324   -3.0088 H     1    ESP        -0.0042
      8 H           0.6240   -1.1831    2.9613 H     1    ESP        -0.0028
      8 H          -0.0467   -1.5704    2.9613 H     1    ESP        -0.0008
      8 H           0.4004   -1.5704    2.9613 H     1    ESP        -0.0017
      8 H          -0.2653   -1.9489    2.8615 H     1    ESP         0.0002
      8 H           0.1769   -2.0674    2.8615 H     1    ESP        -0.0004
      8 H           0.6190   -1.9489    2.8615 H     1    ESP        -0.0015
      8 H           0.9427   -1.6253    2.8615 H     1    ESP        -0.0028
      8 H          -0.4740   -2.3104    2.6977 H     1    ESP         0.0012
      8 H          -0.0492   -2.4650    2.6977 H     1    ESP         0.0008
      8 H           0.4029   -2.4650    2.6977 H     1    ESP        -0.0000
      8 H           0.8277   -2.3104    2.6977 H     1    ESP        -0.0012
      8 H           1.1740   -2.0198    2.6977 H     1    ESP        -0.0027
      8 H          -0.7977   -2.5638    2.4735 H     1    ESP         0.0021
      8 H          -0.3891   -2.7755    2.4735 H     1    ESP         0.0020
      8 H           0.0615   -2.8692    2.4735 H     1    ESP         0.0015
      8 H           0.5207   -2.8377    2.4735 H     1    ESP         0.0006
      8 H           0.9543   -2.6836    2.4735 H     1    ESP        -0.0007
      8 H           1.3303   -2.4182    2.4735 H     1    ESP        -0.0023
      8 H          -0.7085   -3.0216    2.1939 H     1    ESP         0.0031
      8 H          -0.2772   -3.1725    2.1939 H     1    ESP         0.0029
      8 H           0.1769   -3.2237    2.1939 H     1    ESP         0.0023
      8 H           0.6309   -3.1725    2.1939 H     1    ESP         0.0013
      8 H           1.0622   -3.0216    2.1939 H     1    ESP        -0.0001
      8 H           1.4491   -2.7785    2.1939 H     1    ESP        -0.0017
      8 H           1.0744   -3.3501    1.8652 H     1    ESP         0.0008
      8 H           1.4799   -3.1333    1.8652 H     1    ESP        -0.0009
      8 H           1.4759   -3.4331    1.4948 H     1    ESP         0.0001
      8 H           1.7632   -3.4814    1.0908 H     1    ESP        -0.0006
      8 H           1.7632   -3.4814   -1.1013 H     1    ESP        -0.0006
      8 H           1.4759   -3.4331   -1.5052 H     1    ESP         0.0001
      8 H           1.0744   -3.3501   -1.8757 H     1    ESP         0.0008
      8 H           1.4799   -3.1333   -1.8757 H     1    ESP        -0.0009
      8 H          -1.0954   -2.7785   -2.2044 H     1    ESP         0.0030
      8 H          -0.7085   -3.0216   -2.2044 H     1    ESP         0.0031
      8 H           0.1769   -3.2237   -2.2044 H     1    ESP         0.0023
      8 H           0.6309   -3.1725   -2.2044 H     1    ESP         0.0013
      8 H           1.0622   -3.0216   -2.2044 H     1    ESP        -0.0001
      8 H           1.4491   -2.7785   -2.2044 H     1    ESP        -0.0018
      8 H          -0.7977   -2.5638   -2.4840 H     1    ESP         0.0021
      8 H          -0.3891   -2.7755   -2.4840 H     1    ESP         0.0020
      8 H           0.0615   -2.8692   -2.4840 H     1    ESP         0.0015
      8 H           0.5207   -2.8377   -2.4840 H     1    ESP         0.0006
      8 H           0.9543   -2.6836   -2.4840 H     1    ESP        -0.0007
      8 H           1.3303   -2.4182   -2.4840 H     1    ESP        -0.0023
      8 H          -0.4740   -2.3104   -2.7081 H     1    ESP         0.0011
      8 H          -0.0492   -2.4650   -2.7081 H     1    ESP         0.0008
      8 H           0.4029   -2.4650   -2.7081 H     1    ESP        -0.0000
      8 H           0.8277   -2.3104   -2.7081 H     1    ESP        -0.0012
      8 H           1.1740   -2.0198   -2.7081 H     1    ESP        -0.0027
      8 H          -0.2653   -1.9489   -2.8720 H     1    ESP         0.0002
      8 H           0.1769   -2.0674   -2.8720 H     1    ESP        -0.0004
      8 H           0.6190   -1.9489   -2.8720 H     1    ESP        -0.0015
      8 H           0.9427   -1.6253   -2.8720 H     1    ESP        -0.0029
      8 H           0.6240   -1.1831   -2.9717 H     1    ESP        -0.0028
      8 H          -0.0467   -1.5704   -2.9717 H     1    ESP        -0.0009
      8 H           0.4004   -1.5704   -2.9717 H     1    ESP        -0.0017
      8 H          -1.1716   -0.0655    3.5056 H     1    ESP        -0.0007
      8 H          -0.7148   -0.0655    3.4757 H     1    ESP        -0.0011
      8 H          -0.9432    0.3301    3.4757 H     1    ESP        -0.0009
      8 H          -1.4000    0.3301    3.4757 H     1    ESP        -0.0006
      8 H          -1.6285   -0.0655    3.4757 H     1    ESP        -0.0004
      8 H          -1.4000   -0.4611    3.4757 H     1    ESP        -0.0004
      8 H          -0.9432   -0.4611    3.4757 H     1    ESP        -0.0007
      8 H          -0.2657   -0.0655    3.3864 H     1    ESP        -0.0016
      8 H          -0.3871    0.3874    3.3864 H     1    ESP        -0.0015
      8 H          -0.7187    0.7190    3.3864 H     1    ESP        -0.0011
      8 H          -1.1716    0.8404    3.3864 H     1    ESP        -0.0007
      8 H          -1.6245    0.7190    3.3864 H     1    ESP        -0.0005
      8 H          -1.9561    0.3874    3.3864 H     1    ESP        -0.0003
      8 H          -2.0775   -0.0655    3.3864 H     1    ESP        -0.0002
      8 H          -1.9561   -0.5184    3.3864 H     1    ESP        -0.0001
      8 H          -1.6245   -0.8500    3.3864 H     1    ESP        -0.0001
      8 H          -1.1716   -0.9714    3.3864 H     1    ESP        -0.0003
      8 H          -0.7187   -0.8500    3.3864 H     1    ESP        -0.0007
      8 H          -0.3871   -0.5184    3.3864 H     1    ESP        -0.0013
      8 H           0.1678   -0.0655    3.2392 H     1    ESP        -0.0023
      8 H           0.0870    0.3926    3.2392 H     1    ESP        -0.0021
      8 H          -0.1456    0.7955    3.2392 H     1    ESP        -0.0017
      8 H          -0.5019    1.0945    3.2392 H     1    ESP        -0.0012
      8 H          -0.9390    1.2535    3.2392 H     1    ESP        -0.0008
      8 H          -1.4042    1.2535    3.2392 H     1    ESP        -0.0005
      8 H          -1.8413    1.0945    3.2392 H     1    ESP        -0.0003
      8 H          -2.1976    0.7955    3.2392 H     1    ESP        -0.0002
      8 H          -2.4302    0.3926    3.2392 H     1    ESP        -0.0001
      8 H          -2.5110   -0.0655    3.2392 H     1    ESP         0.0000
      8 H          -2.4302   -0.5236    3.2392 H     1    ESP         0.0001
      8 H          -2.1976   -0.9264    3.2392 H     1    ESP         0.0002
      8 H          -1.8413   -1.2254    3.2392 H     1    ESP         0.0002
      8 H          -1.4042   -1.3845    3.2392 H     1    ESP         0.0002
      8 H          -0.9390   -1.3845    3.2392 H     1    ESP        -0.0001
      8 H          -0.5019   -1.2254    3.2392 H     1    ESP        -0.0007
      8 H          -0.1456   -0.9264    3.2392 H     1    ESP        -0.0014
      8 H           0.0870   -0.5236    3.2392 H     1    ESP        -0.0021
      8 H           0.5784   -0.0655    3.0367 H     1    ESP        -0.0033
      8 H           0.5188    0.3874    3.0367 H     1    ESP        -0.0029
      8 H           0.3439    0.8095    3.0367 H     1    ESP        -0.0024
      8 H           0.0658    1.1719    3.0367 H     1    ESP        -0.0018
      8 H          -0.2966    1.4501    3.0367 H     1    ESP        -0.0011
      8 H          -0.7187    1.6249    3.0367 H     1    ESP        -0.0006
      8 H          -1.1716    1.6845    3.0367 H     1    ESP        -0.0003
      8 H          -1.6245    1.6249    3.0367 H     1    ESP        -0.0001
      8 H          -2.0466    1.4501    3.0367 H     1    ESP        -0.0000
      8 H          -2.4090    1.1719    3.0367 H     1    ESP        -0.0000
      8 H          -2.6872    0.8095    3.0367 H     1    ESP         0.0000
      8 H          -2.8620    0.3874    3.0367 H     1    ESP         0.0001
      8 H          -2.9216   -0.0655    3.0367 H     1    ESP         0.0001
      8 H          -2.8620   -0.5184    3.0367 H     1    ESP         0.0002
      8 H          -2.6872   -0.9405    3.0367 H     1    ESP         0.0003
      8 H          -2.4090   -1.3029    3.0367 H     1    ESP         0.0005
      8 H          -2.0466   -1.5810    3.0367 H     1    ESP         0.0006
      8 H          -1.6245   -1.7559    3.0367 H     1    ESP         0.0006
      8 H          -1.1716   -1.8155    3.0367 H     1    ESP         0.0006
      8 H          -0.7187   -1.7559    3.0367 H     1    ESP         0.0002
      8 H          -0.2966   -1.5810    3.0367 H     1    ESP        -0.0005
      8 H           0.0658   -1.3029    3.0367 H     1    ESP        -0.0014
      8 H           0.3439   -0.9405    3.0367 H     1    ESP        -0.0024
      8 H           0.5188   -0.5184    3.0367 H     1    ESP        -0.0031
      8 H          -1.0563    2.0620    2.7824 H     1    ESP         0.0002
      8 H          -1.5163    2.0371    2.7824 H     1    ESP         0.0003
      8 H          -1.9602    1.9138    2.7824 H     1    ESP         0.0003
      8 H          -2.3673    1.6980    2.7824 H     1    ESP         0.0002
      8 H          -2.7185    1.3998    2.7824 H     1    ESP         0.0002
      8 H          -2.9973    1.0330    2.7824 H     1    ESP         0.0002
      8 H          -3.1907    0.6148    2.7824 H     1    ESP         0.0002
      8 H          -3.2898    0.1649    2.7824 H     1    ESP         0.0002
      8 H          -3.2898   -0.2959    2.7824 H     1    ESP         0.0003
      8 H          -3.1907   -0.7458    2.7824 H     1    ESP         0.0004
      8 H          -2.9973   -1.1640    2.7824 H     1    ESP         0.0005
      8 H          -2.7185   -1.5308    2.7824 H     1    ESP         0.0007
      8 H          -2.3673   -1.8290    2.7824 H     1    ESP         0.0008
      8 H          -1.9602   -2.0448    2.7824 H     1    ESP         0.0010
      8 H          -1.5163   -2.1681    2.7824 H     1    ESP         0.0012
      8 H          -1.0563   -2.1930    2.7824 H     1    ESP         0.0012
      8 H          -0.6016   -2.1185    2.7824 H     1    ESP         0.0009
      8 H          -1.4000    2.3988    2.4805 H     1    ESP         0.0011
      8 H          -1.8489    2.3149    2.4805 H     1    ESP         0.0009
      8 H          -2.2748    2.1499    2.4805 H     1    ESP         0.0007
      8 H          -2.6631    1.9095    2.4805 H     1    ESP         0.0005
      8 H          -3.0006    1.6018    2.4805 H     1    ESP         0.0004
      8 H          -3.2758    1.2374    2.4805 H     1    ESP         0.0003
      8 H          -3.4794    0.8285    2.4805 H     1    ESP         0.0003
      8 H          -3.6043    0.3893    2.4805 H     1    ESP         0.0003
      8 H          -3.6465   -0.0655    2.4805 H     1    ESP         0.0003
      8 H          -3.6043   -0.5203    2.4805 H     1    ESP         0.0004
      8 H          -3.4794   -0.9595    2.4805 H     1    ESP         0.0005
      8 H          -3.2758   -1.3683    2.4805 H     1    ESP         0.0007
      8 H          -3.0006   -1.7328    2.4805 H     1    ESP         0.0008
      8 H          -2.6631   -2.0405    2.4805 H     1    ESP         0.0011
      8 H          -2.2748   -2.2809    2.4805 H     1    ESP         0.0013
      8 H          -1.8489   -2.4459    2.4805 H     1    ESP         0.0017
      8 H          -1.4000   -2.5298    2.4805 H     1    ESP         0.0019
      8 H          -0.9433   -2.5298    2.4805 H     1    ESP         0.0021
      8 H          -1.8533    2.6263    2.1363 H     1    ESP         0.0018
      8 H          -2.2870    2.4774    2.1363 H     1    ESP         0.0013
      8 H          -2.6903    2.2591    2.1363 H     1    ESP         0.0009
      8 H          -3.0522    1.9774    2.1363 H     1    ESP         0.0006
      8 H          -3.3628    1.6400    2.1363 H     1    ESP         0.0005
      8 H          -3.6137    1.2561    2.1363 H     1    ESP         0.0004
      8 H          -3.7979    0.8361    2.1363 H     1    ESP         0.0003
      8 H          -3.9105    0.3915    2.1363 H     1    ESP         0.0003
      8 H          -3.9483   -0.0655    2.1363 H     1    ESP         0.0004
      8 H          -3.9105   -0.5225    2.1363 H     1    ESP         0.0005
      8 H          -3.7979   -0.9671    2.1363 H     1    ESP         0.0006
      8 H          -3.6137   -1.3871    2.1363 H     1    ESP         0.0007
      8 H          -3.3628   -1.7710    2.1363 H     1    ESP         0.0009
      8 H          -3.0522   -2.1084    2.1363 H     1    ESP         0.0011
      8 H          -2.6903   -2.3901    2.1363 H     1    ESP         0.0015
      8 H          -2.2870   -2.6084    2.1363 H     1    ESP         0.0019
      8 H          -1.8533   -2.7573    2.1363 H     1    ESP         0.0023
      8 H          -1.4009   -2.8327    2.1363 H     1    ESP         0.0029
      8 H          -2.2790    2.7561    1.7556 H     1    ESP         0.0022
      8 H          -2.6872    2.5595    1.7556 H     1    ESP         0.0015
      8 H          -3.0615    2.3043    1.7556 H     1    ESP         0.0010
      8 H          -3.3936    1.9962    1.7556 H     1    ESP         0.0007
      8 H          -3.6760    1.6420    1.7556 H     1    ESP         0.0005
      8 H          -3.9025    1.2496    1.7556 H     1    ESP         0.0004
      8 H          -4.0680    0.8279    1.7556 H     1    ESP         0.0004
      8 H          -4.1688    0.3863    1.7556 H     1    ESP         0.0004
      8 H          -4.2027   -0.0655    1.7556 H     1    ESP         0.0004
      8 H          -4.1688   -0.5173    1.7556 H     1    ESP         0.0005
      8 H          -4.0680   -0.9589    1.7556 H     1    ESP         0.0006
      8 H          -3.9025   -1.3806    1.7556 H     1    ESP         0.0007
      8 H          -3.6760   -1.7730    1.7556 H     1    ESP         0.0009
      8 H          -3.3936   -2.1272    1.7556 H     1    ESP         0.0012
      8 H          -3.0615   -2.4353    1.7556 H     1    ESP         0.0015
      8 H          -2.6872   -2.6905    1.7556 H     1    ESP         0.0019
      8 H          -2.2790   -2.8871    1.7556 H     1    ESP         0.0024
      8 H          -1.8461   -3.0206    1.7556 H     1    ESP         0.0031
      8 H          -1.3981   -3.0881    1.7556 H     1    ESP         0.0040
      8 H          -2.3829    2.9326    1.3450 H     1    ESP         0.0029
      8 H          -2.7884    2.7349    1.3450 H     1    ESP         0.0019
      8 H          -3.1624    2.4826    1.3450 H     1    ESP         0.0013
      8 H          -3.4977    2.1807    1.3450 H     1    ESP         0.0009
      8 H          -3.7876    1.8352    1.3450 H     1    ESP         0.0007
      8 H          -4.0267    1.4526    1.3450 H     1    ESP         0.0005
      8 H          -4.2102    1.0405    1.3450 H     1    ESP         0.0005
      8 H          -4.3345    0.6068    1.3450 H     1    ESP         0.0004
      8 H          -4.3973    0.1601    1.3450 H     1    ESP         0.0004
      8 H          -4.3973   -0.2911    1.3450 H     1    ESP         0.0005
      8 H          -4.3345   -0.7378    1.3450 H     1    ESP         0.0006
      8 H          -4.2102   -1.1714    1.3450 H     1    ESP         0.0007
      8 H          -4.0267   -1.5836    1.3450 H     1    ESP         0.0008
      8 H          -3.7876   -1.9661    1.3450 H     1    ESP         0.0010
      8 H          -3.4977   -2.3117    1.3450 H     1    ESP         0.0013
      8 H          -3.1624   -2.6136    1.3450 H     1    ESP         0.0017
      8 H          -2.7884   -2.8659    1.3450 H     1    ESP         0.0021
      8 H          -2.3829   -3.0636    1.3450 H     1    ESP         0.0028
      8 H          -1.9539   -3.2030    1.3450 H     1    ESP         0.0037
      8 H          -2.5947    3.0011    0.9115 H     1    ESP         0.0030
      8 H          -2.9907    2.7841    0.9115 H     1    ESP         0.0020
      8 H          -3.3543    2.5162    0.9115 H     1    ESP         0.0013
      8 H          -3.6789    2.2023    0.9115 H     1    ESP         0.0009
      8 H          -3.9588    1.8478    0.9115 H     1    ESP         0.0007
      8 H          -4.1890    1.4593    0.9115 H     1    ESP         0.0006
      8 H          -4.3653    1.0435    0.9115 H     1    ESP         0.0005
      8 H          -4.4846    0.6079    0.9115 H     1    ESP         0.0005
      8 H          -4.5448    0.1603    0.9115 H     1    ESP         0.0005
      8 H          -4.5448   -0.2913    0.9115 H     1    ESP         0.0005
      8 H          -4.4846   -0.7389    0.9115 H     1    ESP         0.0006
      8 H          -4.3653   -1.1745    0.9115 H     1    ESP         0.0007
      8 H          -4.1890   -1.5902    0.9115 H     1    ESP         0.0009
      8 H          -3.9588   -1.9788    0.9115 H     1    ESP         0.0011
      8 H          -3.6789   -2.3332    0.9115 H     1    ESP         0.0013
      8 H          -3.3543   -2.6472    0.9115 H     1    ESP         0.0017
      8 H          -2.9907   -2.9151    0.9115 H     1    ESP         0.0021
      8 H          -2.5947   -3.1321    0.9115 H     1    ESP         0.0028
      8 H          -2.1732   -3.2944    0.9115 H     1    ESP         0.0038
      8 H          -2.9066    2.9397    0.4625 H     1    ESP         0.0025
      8 H          -3.2840    2.6875    0.4625 H     1    ESP         0.0017
      8 H          -3.6253    2.3882    0.4625 H     1    ESP         0.0011
      8 H          -3.9246    2.0469    0.4625 H     1    ESP         0.0008
      8 H          -4.1768    1.6695    0.4625 H     1    ESP         0.0006
      8 H          -4.3775    1.2624    0.4625 H     1    ESP         0.0005
      8 H          -4.5234    0.8326    0.4625 H     1    ESP         0.0005
      8 H          -4.6120    0.3874    0.4625 H     1    ESP         0.0005
      8 H          -4.6417   -0.0655    0.4625 H     1    ESP         0.0005
      8 H          -4.6120   -0.5184    0.4625 H     1    ESP         0.0006
      8 H          -4.5234   -0.9636    0.4625 H     1    ESP         0.0007
      8 H          -4.3775   -1.3934    0.4625 H     1    ESP         0.0008
      8 H          -4.1768   -1.8005    0.4625 H     1    ESP         0.0010
      8 H          -3.9246   -2.1779    0.4625 H     1    ESP         0.0012
      8 H          -3.6253   -2.5192    0.4625 H     1    ESP         0.0015
      8 H          -3.2840   -2.8185    0.4625 H     1    ESP         0.0019
      8 H          -2.9066   -3.0707    0.4625 H     1    ESP         0.0025
      8 H          -2.4995   -3.2714    0.4625 H     1    ESP         0.0033
      8 H          -2.0697   -3.4173    0.4625 H     1    ESP         0.0045
      8 H          -2.7905    3.0376    0.0056 H     1    ESP         0.0030
      8 H          -3.1740    2.8051    0.0056 H     1    ESP         0.0020
      8 H          -3.5247    2.5255    0.0056 H     1    ESP         0.0013
      8 H          -3.8367    2.2033    0.0056 H     1    ESP         0.0010
      8 H          -4.1049    1.8439    0.0056 H     1    ESP         0.0007
      8 H          -4.3250    1.4531    0.0056 H     1    ESP         0.0006
      8 H          -4.4933    1.0374    0.0056 H     1    ESP         0.0005
      8 H          -4.6071    0.6036    0.0056 H     1    ESP         0.0005
      8 H          -4.6644    0.1588    0.0056 H     1    ESP         0.0005
      8 H          -4.6644   -0.2897    0.0056 H     1    ESP         0.0005
      8 H          -4.6071   -0.7345    0.0056 H     1    ESP         0.0006
      8 H          -4.4933   -1.1684    0.0056 H     1    ESP         0.0007
      8 H          -4.3250   -1.5841    0.0056 H     1    ESP         0.0009
      8 H          -4.1049   -1.9749    0.0056 H     1    ESP         0.0011
      8 H          -3.8367   -2.3343    0.0056 H     1    ESP         0.0013
      8 H          -3.5247   -2.6565    0.0056 H     1    ESP         0.0016
      8 H          -3.1740   -2.9361    0.0056 H     1    ESP         0.0021
      8 H          -2.7905   -3.1686    0.0056 H     1    ESP         0.0028
      8 H          -2.3804   -3.3501    0.0056 H     1    ESP         0.0037
      8 H          -2.9066    2.9397   -0.4512 H     1    ESP         0.0025
      8 H          -3.2840    2.6875   -0.4512 H     1    ESP         0.0017
      8 H          -3.6253    2.3882   -0.4512 H     1    ESP         0.0011
      8 H          -3.9246    2.0469   -0.4512 H     1    ESP         0.0008
      8 H          -4.1768    1.6695   -0.4512 H     1    ESP         0.0006
      8 H          -4.3775    1.2624   -0.4512 H     1    ESP         0.0005
      8 H          -4.5234    0.8326   -0.4512 H     1    ESP         0.0005
      8 H          -4.6120    0.3874   -0.4512 H     1    ESP         0.0005
      8 H          -4.6417   -0.0655   -0.4512 H     1    ESP         0.0005
      8 H          -4.6120   -0.5184   -0.4512 H     1    ESP         0.0006
      8 H          -4.5234   -0.9636   -0.4512 H     1    ESP         0.0007
      8 H          -4.3775   -1.3934   -0.4512 H     1    ESP         0.0008
      8 H          -4.1768   -1.8005   -0.4512 H     1    ESP         0.0010
      8 H          -3.9246   -2.1779   -0.4512 H     1    ESP         0.0012
      8 H          -3.6253   -2.5192   -0.4512 H     1    ESP         0.0015
      8 H          -3.2840   -2.8185   -0.4512 H     1    ESP         0.0019
      8 H          -2.9066   -3.0707   -0.4512 H     1    ESP         0.0025
      8 H          -2.4995   -3.2714   -0.4512 H     1    ESP         0.0033
      8 H          -2.0697   -3.4173   -0.4512 H     1    ESP         0.0045
      8 H          -2.5947    3.0011   -0.9002 H     1    ESP         0.0030
      8 H          -2.9907    2.7841   -0.9002 H     1    ESP         0.0020
      8 H          -3.3543    2.5162   -0.9002 H     1    ESP         0.0013
      8 H          -3.6789    2.2023   -0.9002 H     1    ESP         0.0009
      8 H          -3.9588    1.8478   -0.9002 H     1    ESP         0.0007
      8 H          -4.1890    1.4593   -0.9002 H     1    ESP         0.0006
      8 H          -4.3653    1.0435   -0.9002 H     1    ESP         0.0005
      8 H          -4.4846    0.6079   -0.9002 H     1    ESP         0.0005
      8 H          -4.5448    0.1603   -0.9002 H     1    ESP         0.0005
      8 H          -4.5448   -0.2913   -0.9002 H     1    ESP         0.0005
      8 H          -4.4846   -0.7389   -0.9002 H     1    ESP         0.0006
      8 H          -4.3653   -1.1745   -0.9002 H     1    ESP         0.0007
      8 H          -4.1890   -1.5902   -0.9002 H     1    ESP         0.0009
      8 H          -3.9588   -1.9788   -0.9002 H     1    ESP         0.0011
      8 H          -3.6789   -2.3332   -0.9002 H     1    ESP         0.0013
      8 H          -3.3543   -2.6472   -0.9002 H     1    ESP         0.0017
      8 H          -2.9907   -2.9151   -0.9002 H     1    ESP         0.0022
      8 H          -2.5947   -3.1321   -0.9002 H     1    ESP         0.0028
      8 H          -2.1732   -3.2944   -0.9002 H     1    ESP         0.0038
      8 H          -2.3829    2.9326   -1.3338 H     1    ESP         0.0028
      8 H          -2.7884    2.7349   -1.3338 H     1    ESP         0.0019
      8 H          -3.1624    2.4826   -1.3338 H     1    ESP         0.0013
      8 H          -3.4977    2.1807   -1.3338 H     1    ESP         0.0009
      8 H          -3.7876    1.8352   -1.3338 H     1    ESP         0.0007
      8 H          -4.0267    1.4526   -1.3338 H     1    ESP         0.0005
      8 H          -4.2102    1.0405   -1.3338 H     1    ESP         0.0004
      8 H          -4.3345    0.6068   -1.3338 H     1    ESP         0.0004
      8 H          -4.3973    0.1601   -1.3338 H     1    ESP         0.0004
      8 H          -4.3973   -0.2911   -1.3338 H     1    ESP         0.0005
      8 H          -4.3345   -0.7378   -1.3338 H     1    ESP         0.0006
      8 H          -4.2102   -1.1714   -1.3338 H     1    ESP         0.0007
      8 H          -4.0267   -1.5836   -1.3338 H     1    ESP         0.0008
      8 H          -3.7876   -1.9661   -1.3338 H     1    ESP         0.0010
      8 H          -3.4977   -2.3117   -1.3338 H     1    ESP         0.0013
      8 H          -3.1624   -2.6136   -1.3338 H     1    ESP         0.0017
      8 H          -2.7884   -2.8659   -1.3338 H     1    ESP         0.0022
      8 H          -2.3829   -3.0636   -1.3338 H     1    ESP         0.0028
      8 H          -1.9539   -3.2030   -1.3338 H     1    ESP         0.0038
      8 H          -2.2790    2.7561   -1.7444 H     1    ESP         0.0021
      8 H          -2.6872    2.5595   -1.7444 H     1    ESP         0.0014
      8 H          -3.0615    2.3043   -1.7444 H     1    ESP         0.0010
      8 H          -3.3936    1.9962   -1.7444 H     1    ESP         0.0007
      8 H          -3.6760    1.6420   -1.7444 H     1    ESP         0.0005
      8 H          -3.9025    1.2496   -1.7444 H     1    ESP         0.0004
      8 H          -4.0680    0.8279   -1.7444 H     1    ESP         0.0004
      8 H          -4.1688    0.3863   -1.7444 H     1    ESP         0.0004
      8 H          -4.2027   -0.0655   -1.7444 H     1    ESP         0.0004
      8 H          -4.1688   -0.5173   -1.7444 H     1    ESP         0.0005
      8 H          -4.0680   -0.9589   -1.7444 H     1    ESP         0.0006
      8 H          -3.9025   -1.3806   -1.7444 H     1    ESP         0.0007
      8 H          -3.6760   -1.7730   -1.7444 H     1    ESP         0.0009
      8 H          -3.3936   -2.1272   -1.7444 H     1    ESP         0.0012
      8 H          -3.0615   -2.4353   -1.7444 H     1    ESP         0.0015
      8 H          -2.6872   -2.6905   -1.7444 H     1    ESP         0.0019
      8 H          -2.2790   -2.8871   -1.7444 H     1    ESP         0.0025
      8 H          -1.8461   -3.0206   -1.7444 H     1    ESP         0.0032
      8 H          -1.8533    2.6263   -2.1250 H     1    ESP         0.0018
      8 H          -2.2870    2.4774   -2.1250 H     1    ESP         0.0013
      8 H          -2.6903    2.2591   -2.1250 H     1    ESP         0.0009
      8 H          -3.0522    1.9774   -2.1250 H     1    ESP         0.0006
      8 H          -3.3628    1.6400   -2.1250 H     1    ESP         0.0005
      8 H          -3.6137    1.2561   -2.1250 H     1    ESP         0.0004
      8 H          -3.7979    0.8361   -2.1250 H     1    ESP         0.0003
      8 H          -3.9105    0.3915   -2.1250 H     1    ESP         0.0003
      8 H          -3.9483   -0.0655   -2.1250 H     1    ESP         0.0004
      8 H          -3.9105   -0.5225   -2.1250 H     1    ESP         0.0005
      8 H          -3.7979   -0.9671   -2.1250 H     1    ESP         0.0006
      8 H          -3.6137   -1.3871   -2.1250 H     1    ESP         0.0007
      8 H          -3.3628   -1.7710   -2.1250 H     1    ESP         0.0009
      8 H          -3.0522   -2.1084   -2.1250 H     1    ESP         0.0012
      8 H          -2.6903   -2.3901   -2.1250 H     1    ESP         0.0015
      8 H          -2.2870   -2.6084   -2.1250 H     1    ESP         0.0019
      8 H          -1.8533   -2.7573   -2.1250 H     1    ESP         0.0024
      8 H          -1.4009   -2.8327   -2.1250 H     1    ESP         0.0030
      8 H          -1.4000    2.3988   -2.4693 H     1    ESP         0.0011
      8 H          -1.8489    2.3149   -2.4693 H     1    ESP         0.0009
      8 H          -2.2748    2.1499   -2.4693 H     1    ESP         0.0007
      8 H          -2.6631    1.9095   -2.4693 H     1    ESP         0.0005
      8 H          -3.0006    1.6018   -2.4693 H     1    ESP         0.0004
      8 H          -3.2758    1.2374   -2.4693 H     1    ESP         0.0003
      8 H          -3.4794    0.8285   -2.4693 H     1    ESP         0.0003
      8 H          -3.6043    0.3893   -2.4693 H     1    ESP         0.0003
      8 H          -3.6465   -0.0655   -2.4693 H     1    ESP         0.0003
      8 H          -3.6043   -0.5203   -2.4693 H     1    ESP         0.0004
      8 H          -3.4794   -0.9595   -2.4693 H     1    ESP         0.0005
      8 H          -3.2758   -1.3683   -2.4693 H     1    ESP         0.0007
      8 H          -3.0006   -1.7328   -2.4693 H     1    ESP         0.0008
      8 H          -2.6631   -2.0405   -2.4693 H     1    ESP         0.0011
      8 H          -2.2748   -2.2809   -2.4693 H     1    ESP         0.0014
      8 H          -1.8489   -2.4459   -2.4693 H     1    ESP         0.0017
      8 H          -1.4000   -2.5298   -2.4693 H     1    ESP         0.0020
      8 H          -0.9433   -2.5298   -2.4693 H     1    ESP         0.0022
      8 H          -1.0563    2.0620   -2.7711 H     1    ESP         0.0002
      8 H          -1.5163    2.0371   -2.7711 H     1    ESP         0.0003
      8 H          -1.9602    1.9138   -2.7711 H     1    ESP         0.0003
      8 H          -2.3673    1.6980   -2.7711 H     1    ESP         0.0002
      8 H          -2.7185    1.3998   -2.7711 H     1    ESP         0.0002
      8 H          -2.9973    1.0330   -2.7711 H     1    ESP         0.0002
      8 H          -3.1907    0.6148   -2.7711 H     1    ESP         0.0002
      8 H          -3.2898    0.1649   -2.7711 H     1    ESP         0.0002
      8 H          -3.2898   -0.2959   -2.7711 H     1    ESP         0.0003
      8 H          -3.1907   -0.7458   -2.7711 H     1    ESP         0.0004
      8 H          -2.9973   -1.1640   -2.7711 H     1    ESP         0.0005
      8 H          -2.7185   -1.5308   -2.7711 H     1    ESP         0.0007
      8 H          -2.3673   -1.8290   -2.7711 H     1    ESP         0.0009
      8 H          -1.9602   -2.0448   -2.7711 H     1    ESP         0.0011
      8 H          -1.5163   -2.1681   -2.7711 H     1    ESP         0.0012
      8 H          -1.0563   -2.1930   -2.7711 H     1    ESP         0.0012
      8 H          -0.6016   -2.1185   -2.7711 H     1    ESP         0.0009
      8 H           0.5784   -0.0655   -3.0255 H     1    ESP        -0.0034
      8 H           0.5188    0.3874   -3.0255 H     1    ESP        -0.0030
      8 H           0.3439    0.8095   -3.0255 H     1    ESP        -0.0024
      8 H           0.0658    1.1719   -3.0255 H     1    ESP        -0.0018
      8 H          -0.2966    1.4501   -3.0255 H     1    ESP        -0.0012
      8 H          -0.7187    1.6249   -3.0255 H     1    ESP        -0.0007
      8 H          -1.1716    1.6845   -3.0255 H     1    ESP        -0.0003
      8 H          -1.6245    1.6249   -3.0255 H     1    ESP        -0.0001
      8 H          -2.0466    1.4501   -3.0255 H     1    ESP        -0.0001
      8 H          -2.4090    1.1719   -3.0255 H     1    ESP        -0.0000
      8 H          -2.6872    0.8095   -3.0255 H     1    ESP         0.0000
      8 H          -2.8620    0.3874   -3.0255 H     1    ESP         0.0001
      8 H          -2.9216   -0.0655   -3.0255 H     1    ESP         0.0001
      8 H          -2.8620   -0.5184   -3.0255 H     1    ESP         0.0002
      8 H          -2.6872   -0.9405   -3.0255 H     1    ESP         0.0003
      8 H          -2.4090   -1.3029   -3.0255 H     1    ESP         0.0005
      8 H          -2.0466   -1.5810   -3.0255 H     1    ESP         0.0006
      8 H          -1.6245   -1.7559   -3.0255 H     1    ESP         0.0006
      8 H          -1.1716   -1.8155   -3.0255 H     1    ESP         0.0006
      8 H          -0.7187   -1.7559   -3.0255 H     1    ESP         0.0002
      8 H          -0.2966   -1.5810   -3.0255 H     1    ESP        -0.0005
      8 H           0.0658   -1.3029   -3.0255 H     1    ESP        -0.0015
      8 H           0.3439   -0.9405   -3.0255 H     1    ESP        -0.0025
      8 H           0.5188   -0.5184   -3.0255 H     1    ESP        -0.0032
      8 H           0.1678   -0.0655   -3.2280 H     1    ESP        -0.0024
      8 H           0.0870    0.3926   -3.2280 H     1    ESP        -0.0022
      8 H          -0.1456    0.7955   -3.2280 H     1    ESP        -0.0018
      8 H          -0.5019    1.0945   -3.2280 H     1    ESP        -0.0013
      8 H          -0.9390    1.2535   -3.2280 H     1    ESP        -0.0008
      8 H          -1.4042    1.2535   -3.2280 H     1    ESP        -0.0005
      8 H          -1.8413    1.0945   -3.2280 H     1    ESP        -0.0003
      8 H          -2.1976    0.7955   -3.2280 H     1    ESP        -0.0002
      8 H          -2.4302    0.3926   -3.2280 H     1    ESP        -0.0001
      8 H          -2.5110   -0.0655   -3.2280 H     1    ESP        -0.0000
      8 H          -2.4302   -0.5236   -3.2280 H     1    ESP         0.0001
      8 H          -2.1976   -0.9264   -3.2280 H     1    ESP         0.0002
      8 H          -1.8413   -1.2254   -3.2280 H     1    ESP         0.0002
      8 H          -1.4042   -1.3845   -3.2280 H     1    ESP         0.0002
      8 H          -0.9390   -1.3845   -3.2280 H     1    ESP        -0.0001
      8 H          -0.5019   -1.2254   -3.2280 H     1    ESP        -0.0007
      8 H          -0.1456   -0.9264   -3.2280 H     1    ESP        -0.0014
      8 H           0.0870   -0.5236   -3.2280 H     1    ESP        -0.0021
      8 H          -0.2657   -0.0655   -3.3751 H     1    ESP        -0.0017
      8 H          -0.3871    0.3874   -3.3751 H     1    ESP        -0.0015
      8 H          -0.7187    0.7190   -3.3751 H     1    ESP        -0.0012
      8 H          -1.1716    0.8404   -3.3751 H     1    ESP        -0.0008
      8 H          -1.6245    0.7190   -3.3751 H     1    ESP        -0.0005
      8 H          -1.9561    0.3874   -3.3751 H     1    ESP        -0.0003
      8 H          -2.0775   -0.0655   -3.3751 H     1    ESP        -0.0002
      8 H          -1.9561   -0.5184   -3.3751 H     1    ESP        -0.0001
      8 H          -1.6245   -0.8500   -3.3751 H     1    ESP        -0.0001
      8 H          -1.1716   -0.9714   -3.3751 H     1    ESP        -0.0003
      8 H          -0.7187   -0.8500   -3.3751 H     1    ESP        -0.0008
      8 H          -0.3871   -0.5184   -3.3751 H     1    ESP        -0.0013
      8 H          -0.7148   -0.0655   -3.4644 H     1    ESP        -0.0011
      8 H          -0.9432    0.3301   -3.4644 H     1    ESP        -0.0010
      8 H          -1.4000    0.3301   -3.4644 H     1    ESP        -0.0006
      8 H          -1.6285   -0.0655   -3.4644 H     1    ESP        -0.0004
      8 H          -1.4000   -0.4611   -3.4644 H     1    ESP        -0.0004
      8 H          -0.9432   -0.4611   -3.4644 H     1    ESP        -0.0008
      8 H          -1.1716   -0.0655   -3.4944 H     1    ESP        -0.0007
      8 H          -0.1174    3.5861    2.0045 H     1    ESP         0.0038
      8 H          -0.5805    3.5861    2.0045 H     1    ESP         0.0038
      8 H          -1.0156    3.4277    2.0045 H     1    ESP         0.0036
      8 H          -1.3703    3.1300    2.0045 H     1    ESP         0.0032
      8 H           0.4318    3.7797    1.7061 H     1    ESP         0.0042
      8 H          -0.0036    3.9345    1.7061 H     1    ESP         0.0043
      8 H          -0.4647    3.9660    1.7061 H     1    ESP         0.0043
      8 H          -0.9172    3.8720    1.7061 H     1    ESP         0.0043
      8 H          -1.3276    3.6594    1.7061 H     1    ESP         0.0040
      8 H          -1.6653    3.3439    1.7061 H     1    ESP         0.0037
      8 H          -1.9055    2.9490    1.7061 H     1    ESP         0.0032
      8 H           0.8427    3.8736    1.3424 H     1    ESP         0.0047
      8 H           0.4415    4.1053    1.3424 H     1    ESP         0.0047
      8 H          -0.0024    4.2382    1.3424 H     1    ESP         0.0047
      8 H          -0.4649    4.2651    1.3424 H     1    ESP         0.0047
      8 H          -0.9212    4.1846    1.3424 H     1    ESP         0.0046
      8 H          -1.3467    4.0011    1.3424 H     1    ESP         0.0045
      8 H          -1.7183    3.7244    1.3424 H     1    ESP         0.0042
      8 H          -2.0162    3.3695    1.3424 H     1    ESP         0.0039
      8 H           1.1348    3.9207    0.9274 H     1    ESP         0.0051
      8 H           0.7597    4.1932    0.9274 H     1    ESP         0.0050
      8 H           0.3363    4.3817    0.9274 H     1    ESP         0.0050
      8 H          -0.1171    4.4781    0.9274 H     1    ESP         0.0050
      8 H          -0.5807    4.4781    0.9274 H     1    ESP         0.0050
      8 H          -1.0341    4.3817    0.9274 H     1    ESP         0.0049
      8 H          -1.4576    4.1932    0.9274 H     1    ESP         0.0047
      8 H          -1.8326    3.9207    0.9274 H     1    ESP         0.0045
      8 H          -2.1428    3.5762    0.9274 H     1    ESP         0.0042
      8 H          -2.3745    3.1748    0.9274 H     1    ESP         0.0037
      8 H           1.3155    3.9374    0.4772 H     1    ESP         0.0054
      8 H           0.9588    4.2301    0.4772 H     1    ESP         0.0052
      8 H           0.5519    4.4476    0.4772 H     1    ESP         0.0052
      8 H           0.1103    4.5816    0.4772 H     1    ESP         0.0052
      8 H          -0.3489    4.6268    0.4772 H     1    ESP         0.0051
      8 H          -0.8081    4.5816    0.4772 H     1    ESP         0.0051
      8 H          -1.2497    4.4476    0.4772 H     1    ESP         0.0050
      8 H          -1.6567    4.2301    0.4772 H     1    ESP         0.0048
      8 H          -2.0134    3.9374    0.4772 H     1    ESP         0.0046
      8 H          -2.3061    3.5807    0.4772 H     1    ESP         0.0042
      8 H          -2.5236    3.1737    0.4772 H     1    ESP         0.0038
      8 H           1.3880    3.9291    0.0090 H     1    ESP         0.0056
      8 H           1.0432    4.2279    0.0090 H     1    ESP         0.0053
      8 H           0.6481    4.4561    0.0090 H     1    ESP         0.0052
      8 H           0.2169    4.6053    0.0090 H     1    ESP         0.0052
      8 H          -0.2347    4.6702    0.0090 H     1    ESP         0.0052
      8 H          -0.6905    4.6485    0.0090 H     1    ESP         0.0051
      8 H          -1.1339    4.5409    0.0090 H     1    ESP         0.0051
      8 H          -1.5489    4.3514    0.0090 H     1    ESP         0.0049
      8 H          -1.9206    4.0867    0.0090 H     1    ESP         0.0047
      8 H          -2.2354    3.7565    0.0090 H     1    ESP         0.0044
      8 H          -2.4821    3.3727    0.0090 H     1    ESP         0.0040
      8 H           1.3155    3.9374   -0.4592 H     1    ESP         0.0055
      8 H           0.9588    4.2301   -0.4592 H     1    ESP         0.0052
      8 H           0.5519    4.4476   -0.4592 H     1    ESP         0.0052
      8 H           0.1103    4.5816   -0.4592 H     1    ESP         0.0051
      8 H          -0.3489    4.6268   -0.4592 H     1    ESP         0.0051
      8 H          -0.8081    4.5816   -0.4592 H     1    ESP         0.0051
      8 H          -1.2497    4.4476   -0.4592 H     1    ESP         0.0050
      8 H          -1.6567    4.2301   -0.4592 H     1    ESP         0.0048
      8 H          -2.0134    3.9374   -0.4592 H     1    ESP         0.0046
      8 H          -2.3061    3.5807   -0.4592 H     1    ESP         0.0042
      8 H          -2.5236    3.1737   -0.4592 H     1    ESP         0.0038
      8 H           1.1348    3.9207   -0.9094 H     1    ESP         0.0051
      8 H           0.7597    4.1932   -0.9094 H     1    ESP         0.0050
      8 H           0.3363    4.3817   -0.9094 H     1    ESP         0.0050
      8 H          -0.1171    4.4781   -0.9094 H     1    ESP         0.0050
      8 H          -0.5807    4.4781   -0.9094 H     1    ESP         0.0050
      8 H          -1.0341    4.3817   -0.9094 H     1    ESP         0.0049
      8 H          -1.4576    4.1932   -0.9094 H     1    ESP         0.0047
      8 H          -1.8326    3.9207   -0.9094 H     1    ESP         0.0045
      8 H          -2.1428    3.5762   -0.9094 H     1    ESP         0.0042
      8 H          -2.3745    3.1748   -0.9094 H     1    ESP         0.0037
      8 H           0.8427    3.8736   -1.3244 H     1    ESP         0.0047
      8 H           0.4415    4.1053   -1.3244 H     1    ESP         0.0047
      8 H          -0.0024    4.2382   -1.3244 H     1    ESP         0.0047
      8 H          -0.4649    4.2651   -1.3244 H     1    ESP         0.0047
      8 H          -0.9212    4.1846   -1.3244 H     1    ESP         0.0046
      8 H          -1.3467    4.0011   -1.3244 H     1    ESP         0.0045
      8 H          -1.7183    3.7244   -1.3244 H     1    ESP         0.0042
      8 H          -2.0162    3.3695   -1.3244 H     1    ESP         0.0038
      8 H           0.4318    3.7797   -1.6881 H     1    ESP         0.0042
      8 H          -0.0036    3.9345   -1.6881 H     1    ESP         0.0043
      8 H          -0.4647    3.9660   -1.6881 H     1    ESP         0.0043
      8 H          -0.9172    3.8720   -1.6881 H     1    ESP         0.0042
      8 H          -1.3276    3.6594   -1.6881 H     1    ESP         0.0040
      8 H          -1.6653    3.3439   -1.6881 H     1    ESP         0.0037
      8 H          -1.9055    2.9490   -1.6881 H     1    ESP         0.0031
      8 H          -0.1174    3.5861   -1.9865 H     1    ESP         0.0038
      8 H          -0.5805    3.5861   -1.9865 H     1    ESP         0.0038
      8 H          -1.0156    3.4277   -1.9865 H     1    ESP         0.0036
      8 H          -1.3703    3.1300   -1.9865 H     1    ESP         0.0032
      8 H           3.4767    1.3433    1.9903 H     1    ESP         0.0005
      8 H           3.3963    1.7994    1.9903 H     1    ESP         0.0014
      8 H           3.1648    2.2004    1.9903 H     1    ESP         0.0019
      8 H           2.8100    2.4981    1.9903 H     1    ESP         0.0023
      8 H           3.8404    1.3433    1.6918 H     1    ESP         0.0007
      8 H           3.7775    1.8012    1.6918 H     1    ESP         0.0015
      8 H           3.5933    2.2251    1.6918 H     1    ESP         0.0020
      8 H           3.3017    2.5836    1.6918 H     1    ESP         0.0025
      8 H           2.9241    2.8501    1.6918 H     1    ESP         0.0028
      8 H           2.4886    3.0049    1.6918 H     1    ESP         0.0031
      8 H           3.7775    0.8855    1.6918 H     1    ESP        -0.0004
      8 H           4.1389    1.3433    1.3281 H     1    ESP         0.0008
      8 H           4.0851    1.8035    1.3281 H     1    ESP         0.0016
      8 H           3.9266    2.2389    1.3281 H     1    ESP         0.0021
      8 H           3.6720    2.6260    1.3281 H     1    ESP         0.0025
      8 H           3.3350    2.9440    1.3281 H     1    ESP         0.0029
      8 H           2.9337    3.1757    1.3281 H     1    ESP         0.0032
      8 H           2.4899    3.3085    1.3281 H     1    ESP         0.0036
      8 H           2.0273    3.3355    1.3281 H     1    ESP         0.0040
      8 H           3.9266    0.4477    1.3281 H     1    ESP        -0.0017
      8 H           4.0851    0.8831    1.3281 H     1    ESP        -0.0002
      8 H           4.3607    1.3433    0.9132 H     1    ESP         0.0009
      8 H           4.3122    1.8043    0.9132 H     1    ESP         0.0016
      8 H           4.1690    2.2452    0.9132 H     1    ESP         0.0021
      8 H           3.9372    2.6466    0.9132 H     1    ESP         0.0026
      8 H           3.6270    2.9911    0.9132 H     1    ESP         0.0029
      8 H           3.2520    3.2636    0.9132 H     1    ESP         0.0032
      8 H           2.8285    3.4521    0.9132 H     1    ESP         0.0036
      8 H           2.3751    3.5485    0.9132 H     1    ESP         0.0040
      8 H           1.9116    3.5485    0.9132 H     1    ESP         0.0047
      8 H           4.1690    0.4415    0.9132 H     1    ESP        -0.0015
      8 H           4.3122    0.8823    0.9132 H     1    ESP        -0.0000
      8 H           4.4972    1.3433    0.4630 H     1    ESP         0.0010
      8 H           4.4520    1.8025    0.4630 H     1    ESP         0.0016
      8 H           4.3180    2.2441    0.4630 H     1    ESP         0.0022
      8 H           4.1005    2.6511    0.4630 H     1    ESP         0.0026
      8 H           3.8078    3.0078    0.4630 H     1    ESP         0.0029
      8 H           3.4511    3.3005    0.4630 H     1    ESP         0.0032
      8 H           3.0441    3.5180    0.4630 H     1    ESP         0.0036
      8 H           2.6026    3.6520    0.4630 H     1    ESP         0.0040
      8 H           2.1433    3.6972    0.4630 H     1    ESP         0.0046
      8 H           4.3180    0.4425    0.4630 H     1    ESP        -0.0013
      8 H           4.4520    0.8841    0.4630 H     1    ESP         0.0000
      8 H           4.5433    1.3433   -0.0052 H     1    ESP         0.0010
      8 H           4.5000    1.7975   -0.0052 H     1    ESP         0.0016
      8 H           4.3714    2.2353   -0.0052 H     1    ESP         0.0022
      8 H           4.1623    2.6409   -0.0052 H     1    ESP         0.0026
      8 H           3.8803    2.9995   -0.0052 H     1    ESP         0.0029
      8 H           3.5355    3.2983   -0.0052 H     1    ESP         0.0032
      8 H           3.1403    3.5264   -0.0052 H     1    ESP         0.0035
      8 H           2.7092    3.6757   -0.0052 H     1    ESP         0.0039
      8 H           2.2575    3.7406   -0.0052 H     1    ESP         0.0045
      8 H           1.8018    3.7189   -0.0052 H     1    ESP         0.0054
      8 H           4.3714    0.4513   -0.0052 H     1    ESP        -0.0012
      8 H           4.5000    0.8891   -0.0052 H     1    ESP         0.0001
      8 H           4.4972    1.3433   -0.4735 H     1    ESP         0.0010
      8 H           4.4520    1.8025   -0.4735 H     1    ESP         0.0016
      8 H           4.3180    2.2441   -0.4735 H     1    ESP         0.0022
      8 H           4.1005    2.6511   -0.4735 H     1    ESP         0.0026
      8 H           3.8078    3.0078   -0.4735 H     1    ESP         0.0029
      8 H           3.4511    3.3005   -0.4735 H     1    ESP         0.0032
      8 H           3.0441    3.5180   -0.4735 H     1    ESP         0.0035
      8 H           2.6026    3.6520   -0.4735 H     1    ESP         0.0040
      8 H           2.1433    3.6972   -0.4735 H     1    ESP         0.0046
      8 H           4.3180    0.4425   -0.4735 H     1    ESP        -0.0013
      8 H           4.4520    0.8841   -0.4735 H     1    ESP         0.0000
      8 H           4.3607    1.3433   -0.9237 H     1    ESP         0.0009
      8 H           4.3122    1.8043   -0.9237 H     1    ESP         0.0016
      8 H           4.1690    2.2452   -0.9237 H     1    ESP         0.0021
      8 H           3.9372    2.6466   -0.9237 H     1    ESP         0.0025
      8 H           3.6270    2.9911   -0.9237 H     1    ESP         0.0029
      8 H           3.2520    3.2636   -0.9237 H     1    ESP         0.0032
      8 H           2.8285    3.4521   -0.9237 H     1    ESP         0.0036
      8 H           2.3751    3.5485   -0.9237 H     1    ESP         0.0040
      8 H           1.9116    3.5485   -0.9237 H     1    ESP         0.0046
      8 H           4.1690    0.4415   -0.9237 H     1    ESP        -0.0015
      8 H           4.3122    0.8823   -0.9237 H     1    ESP        -0.0001
      8 H           4.1389    1.3433   -1.3386 H     1    ESP         0.0008
      8 H           4.0851    1.8035   -1.3386 H     1    ESP         0.0015
      8 H           3.9266    2.2389   -1.3386 H     1    ESP         0.0021
      8 H           3.6720    2.6260   -1.3386 H     1    ESP         0.0025
      8 H           3.3350    2.9440   -1.3386 H     1    ESP         0.0029
      8 H           2.9337    3.1757   -1.3386 H     1    ESP         0.0032
      8 H           2.4899    3.3085   -1.3386 H     1    ESP         0.0035
      8 H           2.0273    3.3355   -1.3386 H     1    ESP         0.0040
      8 H           3.9266    0.4477   -1.3386 H     1    ESP        -0.0017
      8 H           4.0851    0.8831   -1.3386 H     1    ESP        -0.0002
      8 H           3.8404    1.3433   -1.7023 H     1    ESP         0.0007
      8 H           3.7775    1.8012   -1.7023 H     1    ESP         0.0015
      8 H           3.5933    2.2251   -1.7023 H     1    ESP         0.0020
      8 H           3.3017    2.5836   -1.7023 H     1    ESP         0.0024
      8 H           2.9241    2.8501   -1.7023 H     1    ESP         0.0028
      8 H           2.4886    3.0049   -1.7023 H     1    ESP         0.0031
      8 H           3.7775    0.8855   -1.7023 H     1    ESP        -0.0004
      8 H           3.4767    1.3433   -2.0008 H     1    ESP         0.0005
      8 H           3.3963    1.7994   -2.0008 H     1    ESP         0.0014
      8 H           3.1648    2.2004   -2.0008 H     1    ESP         0.0019
      8 H           2.8100    2.4981   -2.0008 H     1    ESP         0.0023
      8 H          -1.0149   -3.1109    1.9872 H     1    ESP         0.0037
      8 H          -0.6602   -3.4085    1.9872 H     1    ESP         0.0035
      8 H          -0.2250   -3.5669    1.9872 H     1    ESP         0.0031
      8 H           0.2380   -3.5669    1.9872 H     1    ESP         0.0026
      8 H           0.6732   -3.4085    1.9872 H     1    ESP         0.0017
      8 H          -1.3099   -3.3248    1.6887 H     1    ESP         0.0040
      8 H          -0.9722   -3.6403    1.6887 H     1    ESP         0.0039
      8 H          -0.5618   -3.8529    1.6887 H     1    ESP         0.0037
      8 H          -0.1093   -3.9469    1.6887 H     1    ESP         0.0033
      8 H           0.3518   -3.9154    1.6887 H     1    ESP         0.0028
      8 H           0.7873   -3.7606    1.6887 H     1    ESP         0.0020
      8 H           1.1648   -3.4941    1.6887 H     1    ESP         0.0009
      8 H          -1.6607   -3.3504    1.3250 H     1    ESP         0.0043
      8 H          -1.3629   -3.7053    1.3250 H     1    ESP         0.0042
      8 H          -0.9913   -3.9820    1.3250 H     1    ESP         0.0041
      8 H          -0.5658   -4.1655    1.3250 H     1    ESP         0.0038
      8 H          -0.1095   -4.2460    1.3250 H     1    ESP         0.0035
      8 H           0.3530   -4.2190    1.3250 H     1    ESP         0.0030
      8 H           0.7969   -4.0861    1.3250 H     1    ESP         0.0024
      8 H           1.1982   -3.8545    1.3250 H     1    ESP         0.0015
      8 H           1.5352   -3.5365    1.3250 H     1    ESP         0.0002
      8 H          -1.7873   -3.5571    0.9101 H     1    ESP         0.0045
      8 H          -1.4772   -3.9016    0.9101 H     1    ESP         0.0044
      8 H          -1.1021   -4.1741    0.9101 H     1    ESP         0.0042
      8 H          -0.6787   -4.3626    0.9101 H     1    ESP         0.0040
      8 H          -0.2253   -4.4590    0.9101 H     1    ESP         0.0037
      8 H           0.2383   -4.4590    0.9101 H     1    ESP         0.0033
      8 H           0.6917   -4.3626    0.9101 H     1    ESP         0.0028
      8 H           1.1152   -4.1741    0.9101 H     1    ESP         0.0021
      8 H           1.4902   -3.9016    0.9101 H     1    ESP         0.0010
      8 H           1.8003   -3.5571    0.9101 H     1    ESP        -0.0005
      8 H          -1.9507   -3.5616    0.4599 H     1    ESP         0.0046
      8 H          -1.6579   -3.9183    0.4599 H     1    ESP         0.0045
      8 H          -1.3012   -4.2110    0.4599 H     1    ESP         0.0043
      8 H          -0.8943   -4.4285    0.4599 H     1    ESP         0.0042
      8 H          -0.4527   -4.5625    0.4599 H     1    ESP         0.0039
      8 H           0.0065   -4.6077    0.4599 H     1    ESP         0.0036
      8 H           0.4657   -4.5625    0.4599 H     1    ESP         0.0032
      8 H           0.9073   -4.4285    0.4599 H     1    ESP         0.0026
      8 H           1.3143   -4.2110    0.4599 H     1    ESP         0.0018
      8 H           1.6710   -3.9183    0.4599 H     1    ESP         0.0007
      8 H           1.9637   -3.5616    0.4599 H     1    ESP        -0.0010
      8 H          -1.8800   -3.7374   -0.0084 H     1    ESP         0.0046
      8 H          -1.5652   -4.0676   -0.0084 H     1    ESP         0.0045
      8 H          -1.1935   -4.3323   -0.0084 H     1    ESP         0.0043
      8 H          -0.7785   -4.5218   -0.0084 H     1    ESP         0.0041
      8 H          -0.3350   -4.6294   -0.0084 H     1    ESP         0.0039
      8 H           0.1207   -4.6511   -0.0084 H     1    ESP         0.0035
      8 H           0.5723   -4.5862   -0.0084 H     1    ESP         0.0031
      8 H           1.0035   -4.4369   -0.0084 H     1    ESP         0.0025
      8 H           1.3986   -4.2088   -0.0084 H     1    ESP         0.0017
      8 H           1.7435   -3.9100   -0.0084 H     1    ESP         0.0005
      8 H          -1.9507   -3.5616   -0.4766 H     1    ESP         0.0046
      8 H          -1.6579   -3.9183   -0.4766 H     1    ESP         0.0045
      8 H          -1.3012   -4.2110   -0.4766 H     1    ESP         0.0043
      8 H          -0.8943   -4.4285   -0.4766 H     1    ESP         0.0042
      8 H          -0.4527   -4.5625   -0.4766 H     1    ESP         0.0039
      8 H           0.0065   -4.6077   -0.4766 H     1    ESP         0.0036
      8 H           0.4657   -4.5625   -0.4766 H     1    ESP         0.0032
      8 H           0.9073   -4.4285   -0.4766 H     1    ESP         0.0026
      8 H           1.3143   -4.2110   -0.4766 H     1    ESP         0.0018
      8 H           1.6710   -3.9183   -0.4766 H     1    ESP         0.0007
      8 H           1.9637   -3.5616   -0.4766 H     1    ESP        -0.0010
      8 H          -1.7873   -3.5571   -0.9268 H     1    ESP         0.0045
      8 H          -1.4772   -3.9016   -0.9268 H     1    ESP         0.0044
      8 H          -1.1021   -4.1741   -0.9268 H     1    ESP         0.0042
      8 H          -0.6787   -4.3626   -0.9268 H     1    ESP         0.0040
      8 H          -0.2253   -4.4590   -0.9268 H     1    ESP         0.0037
      8 H           0.2383   -4.4590   -0.9268 H     1    ESP         0.0033
      8 H           0.6917   -4.3626   -0.9268 H     1    ESP         0.0028
      8 H           1.1152   -4.1741   -0.9268 H     1    ESP         0.0021
      8 H           1.4902   -3.9016   -0.9268 H     1    ESP         0.0010
      8 H           1.8003   -3.5571   -0.9268 H     1    ESP        -0.0005
      8 H          -1.6607   -3.3504   -1.3417 H     1    ESP         0.0043
      8 H          -1.3629   -3.7053   -1.3417 H     1    ESP         0.0042
      8 H          -0.9913   -3.9820   -1.3417 H     1    ESP         0.0040
      8 H          -0.5658   -4.1655   -1.3417 H     1    ESP         0.0038
      8 H          -0.1095   -4.2460   -1.3417 H     1    ESP         0.0035
      8 H           0.3530   -4.2190   -1.3417 H     1    ESP         0.0030
      8 H           0.7969   -4.0861   -1.3417 H     1    ESP         0.0024
      8 H           1.1982   -3.8545   -1.3417 H     1    ESP         0.0015
      8 H           1.5352   -3.5365   -1.3417 H     1    ESP         0.0002
      8 H          -1.3099   -3.3248   -1.7054 H     1    ESP         0.0040
      8 H          -0.9722   -3.6403   -1.7054 H     1    ESP         0.0039
      8 H          -0.5618   -3.8529   -1.7054 H     1    ESP         0.0036
      8 H          -0.1093   -3.9469   -1.7054 H     1    ESP         0.0033
      8 H           0.3518   -3.9154   -1.7054 H     1    ESP         0.0028
      8 H           0.7873   -3.7606   -1.7054 H     1    ESP         0.0020
      8 H           1.1648   -3.4941   -1.7054 H     1    ESP         0.0009
      8 H          -1.0149   -3.1109   -2.0039 H     1    ESP         0.0037
      8 H          -0.6602   -3.4085   -2.0039 H     1    ESP         0.0035
      8 H          -0.2250   -3.5669   -2.0039 H     1    ESP         0.0031
      8 H           0.2380   -3.5669   -2.0039 H     1    ESP         0.0026
      8 H           0.6732   -3.4085   -2.0039 H     1    ESP         0.0017
