@<TRIPOS>MOLECULE
MOL
 10 8 1 0 0
SMALL
resp


@<TRIPOS>ATOM
      1 C1         -0.0290    1.2400    0.0040 C.2   1    UNL        -0.1644
      2 C2          1.2420    0.7410   -0.0030 C.2   1    UNL         0.3472
      3 N1          1.3550   -0.6320   -0.0090 N.2   1    UNL        -0.5590
      4 C3          0.1770   -1.1830   -0.0050 C.2   1    UNL         0.4293
      5 S1         -1.1720   -0.0650    0.0060 S.3   1    UNL        -0.3243
      6 H1         -0.3490    2.2730    0.0090 H     1    UNL         0.1570
      7 H2          2.1430    1.3430   -0.0050 H     1    UNL         0.0001
      8 H3          0.0070   -2.2540   -0.0080 H     1    UNL         0.0141
      9 DLP1       -2.0864   -1.1090    0.0076 Du    1    UNL         0.0500
     10 DLP2       -2.2512    0.8294    0.0148 Du    1    UNL         0.0500
@<TRIPOS>BOND
     1     1     2 2   
     2     1     5 1   
     3     1     6 1   
     4     2     3 1   
     5     2     7 1   
     6     3     4 2   
     7     4     5 1   
     8     4     8 1   
@<TRIPOS>SUBSTRUCTURE
     1 MOL         1 TEMP              0 ****  ****    0 ROOT
