@<TRIPOS>MOLECULE
ThiaS_esp.mol2
 3289 0 1
SMALL
USER_CHARGES
@<TRIPOS>ATOM
      1 H          -0.0292    1.2400    2.1041 H     1    ESP        -0.0114
      2 H           0.4381    1.2400    2.0515 H     1    ESP        -0.0143
      3 H           0.2044    1.6447    2.0515 H     1    ESP        -0.0105
      4 H          -0.2629    1.6447    2.0515 H     1    ESP        -0.0072
      5 H          -0.4965    1.2400    2.0515 H     1    ESP        -0.0076
      6 H           0.2044    0.8353    2.0515 H     1    ESP        -0.0128
      7 H           0.7598    1.6956    1.8961 H     1    ESP        -0.0117
      8 H           0.4263    2.0291    1.8961 H     1    ESP        -0.0068
      9 H          -0.0292    2.1512    1.8961 H     1    ESP        -0.0027
     10 H          -0.4848    2.0291    1.8961 H     1    ESP        -0.0008
     11 H          -0.8183    1.6956    1.8961 H     1    ESP        -0.0012
     12 H           0.9738    2.0816    1.6459 H     1    ESP        -0.0048
     13 H           0.6254    2.3739    1.6459 H     1    ESP        -0.0005
     14 H           0.1981    2.5295    1.6459 H     1    ESP         0.0038
     15 H          -1.0322    2.0816    1.6459 H     1    ESP         0.0068
     16 H           1.0459    2.4808    1.3134 H     1    ESP         0.0051
     17 H           0.6528    2.7335    1.3134 H     1    ESP         0.0091
     18 H          -1.4104    2.1277    1.3134 H     1    ESP         0.0148
     19 H           1.0456    2.7971    0.9153 H     1    ESP         0.0147
     20 H           1.2473    2.8407    0.4714 H     1    ESP         0.0208
     21 H           1.3303    2.8406    0.0041 H     1    ESP         0.0236
     22 H           1.2473    2.8407   -0.4632 H     1    ESP         0.0208
     23 H           1.0456    2.7971   -0.9071 H     1    ESP         0.0146
     24 H           1.0459    2.4808   -1.3052 H     1    ESP         0.0050
     25 H           0.6528    2.7335   -1.3052 H     1    ESP         0.0089
     26 H          -1.4104    2.1277   -1.3052 H     1    ESP         0.0143
     27 H           0.9738    2.0816   -1.6377 H     1    ESP        -0.0049
     28 H           0.6254    2.3739   -1.6377 H     1    ESP        -0.0007
     29 H           0.1981    2.5295   -1.6377 H     1    ESP         0.0034
     30 H          -0.6839    2.3739   -1.6377 H     1    ESP         0.0073
     31 H          -1.0322    2.0816   -1.6377 H     1    ESP         0.0064
     32 H           0.7598    1.6956   -1.8879 H     1    ESP        -0.0118
     33 H           0.4263    2.0291   -1.8879 H     1    ESP        -0.0070
     34 H          -0.0292    2.1512   -1.8879 H     1    ESP        -0.0030
     35 H          -0.4848    2.0291   -1.8879 H     1    ESP        -0.0012
     36 H          -0.8183    1.6956   -1.8879 H     1    ESP        -0.0015
     37 H           0.4381    1.2400   -2.0432 H     1    ESP        -0.0145
     38 H           0.2044    1.6447   -2.0432 H     1    ESP        -0.0107
     39 H          -0.2629    1.6447   -2.0432 H     1    ESP        -0.0075
     40 H          -0.4965    1.2400   -2.0432 H     1    ESP        -0.0078
     41 H           0.2044    0.8353   -2.0432 H     1    ESP        -0.0129
     42 H          -0.0292    1.2400   -2.0959 H     1    ESP        -0.0116
     43 H           1.2420    0.7411    2.0969 H     1    ESP        -0.0132
     44 H           1.7093    0.7411    2.0442 H     1    ESP        -0.0115
     45 H           1.4757    1.1458    2.0442 H     1    ESP        -0.0109
     46 H           1.0084    1.1458    2.0442 H     1    ESP        -0.0139
     47 H           0.7747    0.7411    2.0442 H     1    ESP        -0.0142
     48 H           1.0084    0.3364    2.0442 H     1    ESP        -0.0132
     49 H           1.4757    0.3364    2.0442 H     1    ESP        -0.0140
     50 H           2.1532    0.7411    1.8889 H     1    ESP        -0.0093
     51 H           2.0311    1.1967    1.8889 H     1    ESP        -0.0061
     52 H           1.6976    1.5302    1.8889 H     1    ESP        -0.0063
     53 H           1.2420    1.6523    1.8889 H     1    ESP        -0.0093
     54 H           0.4529    0.2855    1.8889 H     1    ESP        -0.0090
     55 H           2.0311    0.2855    1.8889 H     1    ESP        -0.0145
     56 H           2.5514    0.7411    1.6387 H     1    ESP        -0.0063
     57 H           2.4724    1.1889    1.6387 H     1    ESP        -0.0011
     58 H           1.8967    1.8750    1.6387 H     1    ESP         0.0003
     59 H           1.4694    2.0306    1.6387 H     1    ESP        -0.0021
     60 H           2.4724    0.2933    1.6387 H     1    ESP        -0.0137
     61 H           1.4757    2.3662    1.3062 H     1    ESP         0.0055
     62 H           2.8174    0.2786    1.3062 H     1    ESP        -0.0125
     63 H           1.4701    2.6194    0.9080 H     1    ESP         0.0137
     64 H           3.0791    0.2883    0.9080 H     1    ESP        -0.0100
     65 H           1.3557    2.8380   -0.0031 H     1    ESP         0.0235
     66 H           1.4701    2.6194   -0.9143 H     1    ESP         0.0135
     67 H           1.4757    2.3662   -1.3125 H     1    ESP         0.0053
     68 H           2.8174    0.2786   -1.3125 H     1    ESP        -0.0126
     69 H           2.5514    0.7411   -1.6450 H     1    ESP        -0.0063
     70 H           1.8967    1.8750   -1.6450 H     1    ESP         0.0003
     71 H           1.4694    2.0306   -1.6450 H     1    ESP        -0.0021
     72 H           1.0147    2.0306   -1.6450 H     1    ESP        -0.0055
     73 H           2.4724    0.2933   -1.6450 H     1    ESP        -0.0139
     74 H           2.1532    0.7411   -1.8952 H     1    ESP        -0.0093
     75 H           2.0311    1.1967   -1.8952 H     1    ESP        -0.0061
     76 H           1.6976    1.5302   -1.8952 H     1    ESP        -0.0063
     77 H           1.2420    1.6523   -1.8952 H     1    ESP        -0.0093
     78 H           0.4529    0.2855   -1.8952 H     1    ESP        -0.0091
     79 H           2.0311    0.2855   -1.8952 H     1    ESP        -0.0147
     80 H           1.7093    0.7411   -2.0505 H     1    ESP        -0.0115
     81 H           1.4757    1.1458   -2.0505 H     1    ESP        -0.0108
     82 H           1.0084    1.1458   -2.0505 H     1    ESP        -0.0138
     83 H           0.7747    0.7411   -2.0505 H     1    ESP        -0.0141
     84 H           1.0084    0.3364   -2.0505 H     1    ESP        -0.0132
     85 H           1.4757    0.3364   -2.0505 H     1    ESP        -0.0141
     86 H           1.2420    0.7411   -2.1031 H     1    ESP        -0.0132
     87 H           1.3546   -0.6324    2.0912 H     1    ESP        -0.0191
     88 H           1.8219   -0.6324    2.0385 H     1    ESP        -0.0228
     89 H           1.5882   -0.2277    2.0385 H     1    ESP        -0.0183
     90 H           1.1209   -0.2277    2.0385 H     1    ESP        -0.0150
     91 H           0.8873   -0.6324    2.0385 H     1    ESP        -0.0147
     92 H           1.1209   -1.0371    2.0385 H     1    ESP        -0.0187
     93 H           1.5882   -1.0371    2.0385 H     1    ESP        -0.0232
     94 H           2.2657   -0.6324    1.8832 H     1    ESP        -0.0262
     95 H           2.1436   -0.1768    1.8832 H     1    ESP        -0.0208
     96 H           0.5655   -0.1768    1.8832 H     1    ESP        -0.0081
     97 H           1.3546   -1.5435    1.8832 H     1    ESP        -0.0216
     98 H           1.8101   -1.4215    1.8832 H     1    ESP        -0.0268
     99 H           2.1436   -1.0880    1.8832 H     1    ESP        -0.0288
    100 H           2.6639   -0.6324    1.6330 H     1    ESP        -0.0292
    101 H           2.5849   -0.1846    1.6330 H     1    ESP        -0.0226
    102 H           1.5819   -1.9218    1.6330 H     1    ESP        -0.0233
    103 H           2.0092   -1.7663    1.6330 H     1    ESP        -0.0298
    104 H           2.3576   -1.4740    1.6330 H     1    ESP        -0.0335
    105 H           2.5849   -1.0802    1.6330 H     1    ESP        -0.0332
    106 H           2.9964   -0.6324    1.3005 H     1    ESP        -0.0318
    107 H           2.9299   -0.1698    1.3005 H     1    ESP        -0.0234
    108 H           1.5882   -2.2575    1.3005 H     1    ESP        -0.0201
    109 H           2.0366   -2.1258    1.3005 H     1    ESP        -0.0296
    110 H           2.4297   -1.8732    1.3005 H     1    ESP        -0.0360
    111 H           2.7358   -1.5200    1.3005 H     1    ESP        -0.0386
    112 H           2.9299   -1.0949    1.3005 H     1    ESP        -0.0371
    113 H           3.2466   -0.6324    0.9023 H     1    ESP        -0.0337
    114 H           3.1916   -0.1796    0.9023 H     1    ESP        -0.0241
    115 H           1.5826   -2.5106    0.9023 H     1    ESP        -0.0150
    116 H           2.0255   -2.4015    0.9023 H     1    ESP        -0.0274
    117 H           2.4294   -2.1895    0.9023 H     1    ESP        -0.0363
    118 H           2.7708   -1.8870    0.9023 H     1    ESP        -0.0414
    119 H           3.0299   -1.5116    0.9023 H     1    ESP        -0.0426
    120 H           3.1916   -1.0852    0.9023 H     1    ESP        -0.0400
    121 H           3.4019   -0.6324    0.4584 H     1    ESP        -0.0348
    122 H           3.3506   -0.1768    0.4584 H     1    ESP        -0.0241
    123 H           1.8101   -2.6284    0.4584 H     1    ESP        -0.0186
    124 H           2.2429   -2.4770    0.4584 H     1    ESP        -0.0313
    125 H           2.6311   -2.2331    0.4584 H     1    ESP        -0.0399
    126 H           2.9552   -1.9089    0.4584 H     1    ESP        -0.0445
    127 H           3.1992   -1.5207    0.4584 H     1    ESP        -0.0452
    128 H           3.3506   -1.0880    0.4584 H     1    ESP        -0.0419
    129 H           3.4546   -0.6324   -0.0088 H     1    ESP        -0.0353
    130 H           3.4055   -0.1809   -0.0088 H     1    ESP        -0.0243
    131 H           1.9164   -2.6558   -0.0088 H     1    ESP        -0.0210
    132 H           2.3382   -2.4877   -0.0088 H     1    ESP        -0.0333
    133 H           2.7141   -2.2329   -0.0088 H     1    ESP        -0.0415
    134 H           3.0264   -1.9032   -0.0088 H     1    ESP        -0.0457
    135 H           3.2605   -1.5141   -0.0088 H     1    ESP        -0.0460
    136 H           3.4055   -1.0838   -0.0088 H     1    ESP        -0.0425
    137 H           3.4019   -0.6324   -0.4761 H     1    ESP        -0.0349
    138 H           3.3506   -0.1768   -0.4761 H     1    ESP        -0.0242
    139 H           1.8101   -2.6284   -0.4761 H     1    ESP        -0.0187
    140 H           2.2429   -2.4770   -0.4761 H     1    ESP        -0.0314
    141 H           2.6311   -2.2331   -0.4761 H     1    ESP        -0.0400
    142 H           2.9552   -1.9089   -0.4761 H     1    ESP        -0.0446
    143 H           3.1992   -1.5207   -0.4761 H     1    ESP        -0.0453
    144 H           3.3506   -1.0880   -0.4761 H     1    ESP        -0.0420
    145 H           3.2466   -0.6324   -0.9200 H     1    ESP        -0.0338
    146 H           3.1916   -0.1796   -0.9200 H     1    ESP        -0.0242
    147 H           1.5826   -2.5106   -0.9200 H     1    ESP        -0.0151
    148 H           2.0255   -2.4015   -0.9200 H     1    ESP        -0.0276
    149 H           2.4294   -2.1895   -0.9200 H     1    ESP        -0.0364
    150 H           2.7708   -1.8870   -0.9200 H     1    ESP        -0.0416
    151 H           3.0299   -1.5116   -0.9200 H     1    ESP        -0.0428
    152 H           3.1916   -1.0852   -0.9200 H     1    ESP        -0.0402
    153 H           2.9964   -0.6324   -1.3182 H     1    ESP        -0.0320
    154 H           2.9299   -0.1698   -1.3182 H     1    ESP        -0.0236
    155 H           1.5882   -2.2575   -1.3182 H     1    ESP        -0.0203
    156 H           2.0366   -2.1258   -1.3182 H     1    ESP        -0.0298
    157 H           2.4297   -1.8732   -1.3182 H     1    ESP        -0.0362
    158 H           2.7358   -1.5200   -1.3182 H     1    ESP        -0.0389
    159 H           2.9299   -1.0949   -1.3182 H     1    ESP        -0.0374
    160 H           2.6639   -0.6324   -1.6507 H     1    ESP        -0.0295
    161 H           2.5849   -0.1846   -1.6507 H     1    ESP        -0.0229
    162 H           1.5819   -1.9218   -1.6507 H     1    ESP        -0.0235
    163 H           2.0092   -1.7663   -1.6507 H     1    ESP        -0.0301
    164 H           2.3576   -1.4740   -1.6507 H     1    ESP        -0.0337
    165 H           2.5849   -1.0802   -1.6507 H     1    ESP        -0.0335
    166 H           2.2657   -0.6324   -1.9009 H     1    ESP        -0.0265
    167 H           2.1436   -0.1768   -1.9009 H     1    ESP        -0.0210
    168 H           0.5655   -0.1768   -1.9009 H     1    ESP        -0.0085
    169 H           1.3546   -1.5435   -1.9009 H     1    ESP        -0.0218
    170 H           1.8101   -1.4215   -1.9009 H     1    ESP        -0.0271
    171 H           2.1436   -1.0880   -1.9009 H     1    ESP        -0.0291
    172 H           1.8219   -0.6324   -2.0562 H     1    ESP        -0.0231
    173 H           1.5882   -0.2277   -2.0562 H     1    ESP        -0.0186
    174 H           1.1209   -0.2277   -2.0562 H     1    ESP        -0.0152
    175 H           0.8873   -0.6324   -2.0562 H     1    ESP        -0.0150
    176 H           1.1209   -1.0371   -2.0562 H     1    ESP        -0.0189
    177 H           1.5882   -1.0371   -2.0562 H     1    ESP        -0.0234
    178 H           1.3546   -0.6324   -2.1088 H     1    ESP        -0.0193
    179 H           0.1769   -1.1831    2.0948 H     1    ESP        -0.0082
    180 H           0.6441   -1.1831    2.0421 H     1    ESP        -0.0129
    181 H           0.4105   -0.7784    2.0421 H     1    ESP        -0.0100
    182 H          -0.2904   -1.1831    2.0421 H     1    ESP        -0.0047
    183 H          -0.0568   -1.5878    2.0421 H     1    ESP        -0.0044
    184 H           0.4105   -1.5878    2.0421 H     1    ESP        -0.0087
    185 H          -0.6122   -1.6387    1.8868 H     1    ESP         0.0011
    186 H          -0.2787   -1.9722    1.8868 H     1    ESP         0.0012
    187 H           0.1769   -2.0943    1.8868 H     1    ESP        -0.0016
    188 H           0.6324   -1.9722    1.8868 H     1    ESP        -0.0078
    189 H           0.9659   -1.6387    1.8868 H     1    ESP        -0.0155
    190 H          -0.8261   -2.0248    1.6366 H     1    ESP         0.0085
    191 H          -0.4778   -2.3170    1.6366 H     1    ESP         0.0089
    192 H           0.4042   -2.4726    1.6366 H     1    ESP         0.0025
    193 H           0.8315   -2.3170    1.6366 H     1    ESP        -0.0053
    194 H           1.1799   -2.0248    1.6366 H     1    ESP        -0.0152
    195 H           1.2520   -2.4240    1.3041 H     1    ESP        -0.0096
    196 H           1.2520   -2.4240   -1.3146 H     1    ESP        -0.0096
    197 H          -0.8261   -2.0248   -1.6471 H     1    ESP         0.0085
    198 H          -0.4778   -2.3170   -1.6471 H     1    ESP         0.0089
    199 H           0.4042   -2.4726   -1.6471 H     1    ESP         0.0026
    200 H           0.8315   -2.3170   -1.6471 H     1    ESP        -0.0053
    201 H           1.1799   -2.0248   -1.6471 H     1    ESP        -0.0153
    202 H          -0.6122   -1.6387   -1.8973 H     1    ESP         0.0010
    203 H          -0.2787   -1.9722   -1.8973 H     1    ESP         0.0012
    204 H           0.1769   -2.0943   -1.8973 H     1    ESP        -0.0016
    205 H           0.6324   -1.9722   -1.8973 H     1    ESP        -0.0078
    206 H           0.9659   -1.6387   -1.8973 H     1    ESP        -0.0157
    207 H           0.6441   -1.1831   -2.0526 H     1    ESP        -0.0131
    208 H           0.4105   -0.7784   -2.0526 H     1    ESP        -0.0102
    209 H          -0.2904   -1.1831   -2.0526 H     1    ESP        -0.0048
    210 H          -0.0568   -1.5878   -2.0526 H     1    ESP        -0.0045
    211 H           0.4105   -1.5878   -2.0526 H     1    ESP        -0.0088
    212 H           0.1769   -1.1831   -2.1052 H     1    ESP        -0.0084
    213 H          -1.1716   -0.0655    2.4556 H     1    ESP        -0.0072
    214 H          -0.7214   -0.0655    2.4139 H     1    ESP        -0.0076
    215 H          -0.9465    0.3244    2.4139 H     1    ESP        -0.0074
    216 H          -1.3967    0.3244    2.4139 H     1    ESP        -0.0066
    217 H          -1.6218   -0.0655    2.4139 H     1    ESP        -0.0066
    218 H          -1.3967   -0.4554    2.4139 H     1    ESP        -0.0064
    219 H          -0.9465   -0.4554    2.4139 H     1    ESP        -0.0069
    220 H          -0.2866   -0.0655    2.2902 H     1    ESP        -0.0076
    221 H          -0.4051    0.3770    2.2902 H     1    ESP        -0.0082
    222 H          -0.7291    0.7010    2.2902 H     1    ESP        -0.0074
    223 H          -1.1716    0.8195    2.2902 H     1    ESP        -0.0055
    224 H          -1.6141    0.7010    2.2902 H     1    ESP        -0.0046
    225 H          -1.9381    0.3770    2.2902 H     1    ESP        -0.0051
    226 H          -2.0567   -0.0655    2.2902 H     1    ESP        -0.0057
    227 H          -1.9381   -0.5080    2.2902 H     1    ESP        -0.0053
    228 H          -1.6141   -0.8320    2.2902 H     1    ESP        -0.0044
    229 H          -1.1716   -0.9505    2.2902 H     1    ESP        -0.0045
    230 H          -0.7291   -0.8320    2.2902 H     1    ESP        -0.0058
    231 H          -0.4051   -0.5080    2.2902 H     1    ESP        -0.0070
    232 H           0.1181   -0.0655    2.0887 H     1    ESP        -0.0073
    233 H           0.0311    0.4004    2.0887 H     1    ESP        -0.0091
    234 H          -0.2185    0.8034    2.0887 H     1    ESP        -0.0099
    235 H          -0.5967    1.0891    2.0887 H     1    ESP        -0.0073
    236 H          -1.0526    1.2188    2.0887 H     1    ESP        -0.0036
    237 H          -1.5246    1.1750    2.0887 H     1    ESP        -0.0014
    238 H          -1.9489    0.9638    2.0887 H     1    ESP        -0.0015
    239 H          -2.2682    0.6135    2.0887 H     1    ESP        -0.0028
    240 H          -2.4394    0.1715    2.0887 H     1    ESP        -0.0041
    241 H          -2.4394   -0.3025    2.0887 H     1    ESP        -0.0044
    242 H          -2.2682   -0.7445    2.0887 H     1    ESP        -0.0033
    243 H          -1.9489   -1.0947    2.0887 H     1    ESP        -0.0016
    244 H          -1.5246   -1.3060    2.0887 H     1    ESP        -0.0006
    245 H          -1.0526   -1.3498    2.0887 H     1    ESP        -0.0012
    246 H          -0.5967   -1.2200    2.0887 H     1    ESP        -0.0035
    247 H          -0.2185   -0.9344    2.0887 H     1    ESP        -0.0060
    248 H           0.0311   -0.5314    2.0887 H     1    ESP        -0.0069
    249 H           0.4789   -0.0655    1.8162 H     1    ESP        -0.0060
    250 H          -1.4065    1.5683    1.8162 H     1    ESP         0.0030
    251 H          -1.8573    1.4359    1.8162 H     1    ESP         0.0036
    252 H          -2.2525    1.1819    1.8162 H     1    ESP         0.0022
    253 H          -2.5601    0.8269    1.8162 H     1    ESP        -0.0000
    254 H          -2.7553    0.3995    1.8162 H     1    ESP        -0.0020
    255 H          -2.8222   -0.0655    1.8162 H     1    ESP        -0.0030
    256 H          -2.7553   -0.5305    1.8162 H     1    ESP        -0.0025
    257 H          -2.5601   -0.9579    1.8162 H     1    ESP        -0.0008
    258 H          -2.2525   -1.3129    1.8162 H     1    ESP         0.0016
    259 H          -1.8573   -1.5669    1.8162 H     1    ESP         0.0038
    260 H          -1.4065   -1.6992    1.8162 H     1    ESP         0.0048
    261 H          -0.9367   -1.6992    1.8162 H     1    ESP         0.0039
    262 H          -1.7324    1.8075    1.4821 H     1    ESP         0.0100
    263 H          -2.1492    1.6277    1.4821 H     1    ESP         0.0085
    264 H          -2.5133    1.3566    1.4821 H     1    ESP         0.0059
    265 H          -2.8051    1.0089    1.4821 H     1    ESP         0.0030
    266 H          -3.0088    0.6032    1.4821 H     1    ESP         0.0005
    267 H          -3.1135    0.1615    1.4821 H     1    ESP        -0.0012
    268 H          -3.1135   -0.2925    1.4821 H     1    ESP        -0.0015
    269 H          -3.0088   -0.7342    1.4821 H     1    ESP        -0.0004
    270 H          -2.8051   -1.1399    1.4821 H     1    ESP         0.0019
    271 H          -2.5133   -1.4876    1.4821 H     1    ESP         0.0049
    272 H          -2.1492   -1.7587    1.4821 H     1    ESP         0.0080
    273 H          -1.7324   -1.9385    1.4821 H     1    ESP         0.0106
    274 H          -1.2853   -2.0173    1.4821 H     1    ESP         0.0121
    275 H          -1.8493    2.0203    1.0977 H     1    ESP         0.0171
    276 H          -2.2682    1.8338    1.0977 H     1    ESP         0.0137
    277 H          -2.6391    1.5643    1.0977 H     1    ESP         0.0101
    278 H          -2.9459    1.2236    1.0977 H     1    ESP         0.0065
    279 H          -3.1752    0.8265    1.0977 H     1    ESP         0.0033
    280 H          -3.3168    0.3905    1.0977 H     1    ESP         0.0009
    281 H          -3.3648   -0.0655    1.0977 H     1    ESP        -0.0002
    282 H          -3.3168   -0.5215    1.0977 H     1    ESP         0.0003
    283 H          -3.1752   -0.9575    1.0977 H     1    ESP         0.0021
    284 H          -2.9459   -1.3546    1.0977 H     1    ESP         0.0051
    285 H          -2.6391   -1.6953    1.0977 H     1    ESP         0.0087
    286 H          -2.2682   -1.9648    1.0977 H     1    ESP         0.0127
    287 H          -1.8493   -2.1513    1.0977 H     1    ESP         0.0165
    288 H          -1.4009   -2.2466    1.0977 H     1    ESP         0.0203
    289 H          -2.0734    2.1116    0.6761 H     1    ESP         0.0215
    290 H          -2.4808    1.8938    0.6761 H     1    ESP         0.0164
    291 H          -2.8379    1.6008    0.6761 H     1    ESP         0.0120
    292 H          -3.1309    1.2437    0.6761 H     1    ESP         0.0079
    293 H          -3.3487    0.8363    0.6761 H     1    ESP         0.0044
    294 H          -3.4828    0.3942    0.6761 H     1    ESP         0.0020
    295 H          -3.5281   -0.0655    0.6761 H     1    ESP         0.0009
    296 H          -3.4828   -0.5252    0.6761 H     1    ESP         0.0013
    297 H          -3.3487   -0.9673    0.6761 H     1    ESP         0.0032
    298 H          -3.1309   -1.3747    0.6761 H     1    ESP         0.0063
    299 H          -2.8379   -1.7318    0.6761 H     1    ESP         0.0103
    300 H          -2.4808   -2.0248    0.6761 H     1    ESP         0.0148
    301 H          -2.0734   -2.2426    0.6761 H     1    ESP         0.0197
    302 H          -1.6313   -2.3767    0.6761 H     1    ESP         0.0253
    303 H          -2.3914    2.0472    0.2317 H     1    ESP         0.0204
    304 H          -2.7692    1.7782    0.2317 H     1    ESP         0.0153
    305 H          -3.0892    1.4425    0.2317 H     1    ESP         0.0107
    306 H          -3.3400    1.0524    0.2317 H     1    ESP         0.0067
    307 H          -3.5123    0.6218    0.2317 H     1    ESP         0.0036
    308 H          -3.6001    0.1664    0.2317 H     1    ESP         0.0018
    309 H          -3.6001   -0.2974    0.2317 H     1    ESP         0.0014
    310 H          -3.5123   -0.7528    0.2317 H     1    ESP         0.0026
    311 H          -3.3400   -1.1834    0.2317 H     1    ESP         0.0052
    312 H          -3.0892   -1.5735    0.2317 H     1    ESP         0.0089
    313 H          -2.7692   -1.9092    0.2317 H     1    ESP         0.0134
    314 H          -2.3914   -2.1782    0.2317 H     1    ESP         0.0185
    315 H          -1.9695   -2.3709    0.2317 H     1    ESP         0.0242
    316 H          -2.3914    2.0472   -0.2204 H     1    ESP         0.0203
    317 H          -2.7692    1.7782   -0.2204 H     1    ESP         0.0152
    318 H          -3.0892    1.4425   -0.2204 H     1    ESP         0.0107
    319 H          -3.3400    1.0524   -0.2204 H     1    ESP         0.0067
    320 H          -3.5123    0.6218   -0.2204 H     1    ESP         0.0036
    321 H          -3.6001    0.1664   -0.2204 H     1    ESP         0.0018
    322 H          -3.6001   -0.2974   -0.2204 H     1    ESP         0.0014
    323 H          -3.5123   -0.7528   -0.2204 H     1    ESP         0.0026
    324 H          -3.3400   -1.1834   -0.2204 H     1    ESP         0.0052
    325 H          -3.0892   -1.5735   -0.2204 H     1    ESP         0.0089
    326 H          -2.7692   -1.9092   -0.2204 H     1    ESP         0.0135
    327 H          -2.3914   -2.1782   -0.2204 H     1    ESP         0.0185
    328 H          -1.9695   -2.3709   -0.2204 H     1    ESP         0.0243
    329 H          -2.0734    2.1116   -0.6649 H     1    ESP         0.0212
    330 H          -2.4808    1.8938   -0.6649 H     1    ESP         0.0162
    331 H          -2.8379    1.6008   -0.6649 H     1    ESP         0.0119
    332 H          -3.1309    1.2437   -0.6649 H     1    ESP         0.0078
    333 H          -3.3487    0.8363   -0.6649 H     1    ESP         0.0043
    334 H          -3.4828    0.3942   -0.6649 H     1    ESP         0.0019
    335 H          -3.5281   -0.0655   -0.6649 H     1    ESP         0.0008
    336 H          -3.4828   -0.5252   -0.6649 H     1    ESP         0.0012
    337 H          -3.3487   -0.9673   -0.6649 H     1    ESP         0.0032
    338 H          -3.1309   -1.3747   -0.6649 H     1    ESP         0.0063
    339 H          -2.8379   -1.7318   -0.6649 H     1    ESP         0.0103
    340 H          -2.4808   -2.0248   -0.6649 H     1    ESP         0.0149
    341 H          -2.0734   -2.2426   -0.6649 H     1    ESP         0.0198
    342 H          -1.6313   -2.3767   -0.6649 H     1    ESP         0.0256
    343 H          -1.8493    2.0203   -1.0864 H     1    ESP         0.0168
    344 H          -2.2682    1.8338   -1.0864 H     1    ESP         0.0134
    345 H          -2.6391    1.5643   -1.0864 H     1    ESP         0.0099
    346 H          -2.9459    1.2236   -1.0864 H     1    ESP         0.0063
    347 H          -3.1752    0.8265   -1.0864 H     1    ESP         0.0031
    348 H          -3.3168    0.3905   -1.0864 H     1    ESP         0.0008
    349 H          -3.3648   -0.0655   -1.0864 H     1    ESP        -0.0002
    350 H          -3.3168   -0.5215   -1.0864 H     1    ESP         0.0002
    351 H          -3.1752   -0.9575   -1.0864 H     1    ESP         0.0021
    352 H          -2.9459   -1.3546   -1.0864 H     1    ESP         0.0051
    353 H          -2.6391   -1.6953   -1.0864 H     1    ESP         0.0088
    354 H          -2.2682   -1.9648   -1.0864 H     1    ESP         0.0128
    355 H          -1.8493   -2.1513   -1.0864 H     1    ESP         0.0167
    356 H          -1.4009   -2.2466   -1.0864 H     1    ESP         0.0207
    357 H          -1.7324    1.8075   -1.4708 H     1    ESP         0.0097
    358 H          -2.1492    1.6277   -1.4708 H     1    ESP         0.0082
    359 H          -2.5133    1.3566   -1.4708 H     1    ESP         0.0057
    360 H          -2.8051    1.0089   -1.4708 H     1    ESP         0.0028
    361 H          -3.0088    0.6032   -1.4708 H     1    ESP         0.0003
    362 H          -3.1135    0.1615   -1.4708 H     1    ESP        -0.0013
    363 H          -3.1135   -0.2925   -1.4708 H     1    ESP        -0.0015
    364 H          -3.0088   -0.7342   -1.4708 H     1    ESP        -0.0004
    365 H          -2.8051   -1.1399   -1.4708 H     1    ESP         0.0019
    366 H          -2.5133   -1.4876   -1.4708 H     1    ESP         0.0050
    367 H          -2.1492   -1.7587   -1.4708 H     1    ESP         0.0082
    368 H          -1.7324   -1.9385   -1.4708 H     1    ESP         0.0108
    369 H          -1.2853   -2.0173   -1.4708 H     1    ESP         0.0124
    370 H          -1.4065    1.5683   -1.8050 H     1    ESP         0.0027
    371 H          -1.8573    1.4359   -1.8050 H     1    ESP         0.0033
    372 H          -2.2525    1.1819   -1.8050 H     1    ESP         0.0020
    373 H          -2.5601    0.8269   -1.8050 H     1    ESP        -0.0002
    374 H          -2.7553    0.3995   -1.8050 H     1    ESP        -0.0022
    375 H          -2.8222   -0.0655   -1.8050 H     1    ESP        -0.0031
    376 H          -2.7553   -0.5305   -1.8050 H     1    ESP        -0.0026
    377 H          -2.5601   -0.9579   -1.8050 H     1    ESP        -0.0008
    378 H          -2.2525   -1.3129   -1.8050 H     1    ESP         0.0017
    379 H          -1.8573   -1.5669   -1.8050 H     1    ESP         0.0040
    380 H          -1.4065   -1.6992   -1.8050 H     1    ESP         0.0050
    381 H          -0.9367   -1.6992   -1.8050 H     1    ESP         0.0041
    382 H           0.1181   -0.0655   -2.0774 H     1    ESP        -0.0073
    383 H           0.0311    0.4004   -2.0774 H     1    ESP        -0.0091
    384 H          -0.2185    0.8034   -2.0774 H     1    ESP        -0.0100
    385 H          -0.5967    1.0891   -2.0774 H     1    ESP        -0.0075
    386 H          -1.0526    1.2188   -2.0774 H     1    ESP        -0.0038
    387 H          -1.5246    1.1750   -2.0774 H     1    ESP        -0.0016
    388 H          -1.9489    0.9638   -2.0774 H     1    ESP        -0.0017
    389 H          -2.2682    0.6135   -2.0774 H     1    ESP        -0.0030
    390 H          -2.4394    0.1715   -2.0774 H     1    ESP        -0.0043
    391 H          -2.4394   -0.3025   -2.0774 H     1    ESP        -0.0044
    392 H          -2.2682   -0.7445   -2.0774 H     1    ESP        -0.0033
    393 H          -1.9489   -1.0947   -2.0774 H     1    ESP        -0.0016
    394 H          -1.5246   -1.3060   -2.0774 H     1    ESP        -0.0005
    395 H          -1.0526   -1.3498   -2.0774 H     1    ESP        -0.0011
    396 H          -0.5967   -1.2200   -2.0774 H     1    ESP        -0.0034
    397 H          -0.2185   -0.9344   -2.0774 H     1    ESP        -0.0059
    398 H           0.0311   -0.5314   -2.0774 H     1    ESP        -0.0069
    399 H          -0.2866   -0.0655   -2.2789 H     1    ESP        -0.0076
    400 H          -0.4051    0.3770   -2.2789 H     1    ESP        -0.0083
    401 H          -0.7291    0.7010   -2.2789 H     1    ESP        -0.0075
    402 H          -1.1716    0.8195   -2.2789 H     1    ESP        -0.0056
    403 H          -1.6141    0.7010   -2.2789 H     1    ESP        -0.0047
    404 H          -1.9381    0.3770   -2.2789 H     1    ESP        -0.0052
    405 H          -2.0567   -0.0655   -2.2789 H     1    ESP        -0.0057
    406 H          -1.9381   -0.5080   -2.2789 H     1    ESP        -0.0053
    407 H          -1.6141   -0.8320   -2.2789 H     1    ESP        -0.0044
    408 H          -1.1716   -0.9505   -2.2789 H     1    ESP        -0.0044
    409 H          -0.7291   -0.8320   -2.2789 H     1    ESP        -0.0058
    410 H          -0.4051   -0.5080   -2.2789 H     1    ESP        -0.0070
    411 H          -0.7214   -0.0655   -2.4027 H     1    ESP        -0.0076
    412 H          -0.9465    0.3244   -2.4027 H     1    ESP        -0.0074
    413 H          -1.3967    0.3244   -2.4027 H     1    ESP        -0.0066
    414 H          -1.6218   -0.0655   -2.4027 H     1    ESP        -0.0067
    415 H          -1.3967   -0.4554   -2.4027 H     1    ESP        -0.0064
    416 H          -0.9465   -0.4554   -2.4027 H     1    ESP        -0.0069
    417 H          -1.1716   -0.0655   -2.4444 H     1    ESP        -0.0073
    418 H          -0.1123    2.6828    1.6209 H     1    ESP         0.0082
    419 H          -0.5856    2.6828    1.6209 H     1    ESP         0.0107
    420 H           0.4377    2.7271    1.4223 H     1    ESP         0.0085
    421 H           0.1052    3.0595    1.4223 H     1    ESP         0.0133
    422 H          -0.3489    3.1812    1.4223 H     1    ESP         0.0160
    423 H          -0.8031    3.0595    1.4223 H     1    ESP         0.0167
    424 H          -1.1355    2.7271    1.4223 H     1    ESP         0.0155
    425 H          -1.2572    2.2729    1.4223 H     1    ESP         0.0132
    426 H           0.5894    3.1283    1.1092 H     1    ESP         0.0155
    427 H           0.2170    3.4095    1.1092 H     1    ESP         0.0183
    428 H          -0.2318    3.5372    1.1092 H     1    ESP         0.0202
    429 H          -0.6964    3.4941    1.1092 H     1    ESP         0.0211
    430 H          -1.1141    3.2862    1.1092 H     1    ESP         0.0209
    431 H          -1.4284    2.9413    1.1092 H     1    ESP         0.0200
    432 H          -1.5970    2.5062    1.1092 H     1    ESP         0.0188
    433 H           0.8874    3.1712    0.7069 H     1    ESP         0.0189
    434 H           0.5493    3.5093    0.7069 H     1    ESP         0.0205
    435 H           0.1233    3.7263    0.7069 H     1    ESP         0.0222
    436 H          -0.3489    3.8011    0.7069 H     1    ESP         0.0235
    437 H          -0.8212    3.7263    0.7069 H     1    ESP         0.0240
    438 H          -1.2472    3.5093    0.7069 H     1    ESP         0.0239
    439 H          -1.5852    3.1712    0.7069 H     1    ESP         0.0232
    440 H          -1.8023    2.7452    0.7069 H     1    ESP         0.0225
    441 H          -1.8771    2.2729    0.7069 H     1    ESP         0.0233
    442 H           1.0500    3.1720    0.2481 H     1    ESP         0.0217
    443 H           0.7400    3.5297    0.2481 H     1    ESP         0.0220
    444 H           0.3419    3.7856    0.2481 H     1    ESP         0.0232
    445 H          -0.1123    3.9189    0.2481 H     1    ESP         0.0244
    446 H          -0.5856    3.9189    0.2481 H     1    ESP         0.0252
    447 H          -1.0397    3.7856    0.2481 H     1    ESP         0.0255
    448 H          -1.4379    3.5297    0.2481 H     1    ESP         0.0251
    449 H          -1.7478    3.1720    0.2481 H     1    ESP         0.0245
    450 H          -1.9445    2.7414    0.2481 H     1    ESP         0.0242
    451 H          -2.0118    2.2729    0.2481 H     1    ESP         0.0262
    452 H           1.0500    3.1720   -0.2301 H     1    ESP         0.0218
    453 H           0.7400    3.5297   -0.2301 H     1    ESP         0.0220
    454 H           0.3419    3.7856   -0.2301 H     1    ESP         0.0232
    455 H          -0.1123    3.9189   -0.2301 H     1    ESP         0.0244
    456 H          -0.5856    3.9189   -0.2301 H     1    ESP         0.0252
    457 H          -1.0397    3.7856   -0.2301 H     1    ESP         0.0254
    458 H          -1.4379    3.5297   -0.2301 H     1    ESP         0.0251
    459 H          -1.7478    3.1720   -0.2301 H     1    ESP         0.0244
    460 H          -1.9445    2.7414   -0.2301 H     1    ESP         0.0242
    461 H          -2.0118    2.2729   -0.2301 H     1    ESP         0.0261
    462 H           0.8874    3.1712   -0.6889 H     1    ESP         0.0190
    463 H           0.5493    3.5093   -0.6889 H     1    ESP         0.0205
    464 H           0.1233    3.7263   -0.6889 H     1    ESP         0.0221
    465 H          -0.3489    3.8011   -0.6889 H     1    ESP         0.0234
    466 H          -0.8212    3.7263   -0.6889 H     1    ESP         0.0240
    467 H          -1.2472    3.5093   -0.6889 H     1    ESP         0.0238
    468 H          -1.5852    3.1712   -0.6889 H     1    ESP         0.0231
    469 H          -1.8023    2.7452   -0.6889 H     1    ESP         0.0224
    470 H          -1.8771    2.2729   -0.6889 H     1    ESP         0.0232
    471 H           0.5894    3.1283   -1.0912 H     1    ESP         0.0154
    472 H           0.2170    3.4095   -1.0912 H     1    ESP         0.0182
    473 H          -0.2318    3.5372   -1.0912 H     1    ESP         0.0201
    474 H          -0.6964    3.4941   -1.0912 H     1    ESP         0.0210
    475 H          -1.1141    3.2862   -1.0912 H     1    ESP         0.0208
    476 H          -1.4284    2.9413   -1.0912 H     1    ESP         0.0198
    477 H          -1.5970    2.5062   -1.0912 H     1    ESP         0.0187
    478 H           0.4377    2.7271   -1.4043 H     1    ESP         0.0084
    479 H           0.1052    3.0595   -1.4043 H     1    ESP         0.0132
    480 H          -0.3489    3.1812   -1.4043 H     1    ESP         0.0159
    481 H          -0.8031    3.0595   -1.4043 H     1    ESP         0.0165
    482 H          -1.1355    2.7271   -1.4043 H     1    ESP         0.0153
    483 H          -1.2572    2.2729   -1.4043 H     1    ESP         0.0129
    484 H          -0.1123    2.6828   -1.6030 H     1    ESP         0.0079
    485 H          -0.5856    2.6828   -1.6030 H     1    ESP         0.0105
    486 H           2.6166    1.3433    1.6067 H     1    ESP         0.0013
    487 H           2.3800    1.7532    1.6067 H     1    ESP         0.0034
    488 H           3.0516    1.3433    1.4081 H     1    ESP         0.0044
    489 H           2.9299    1.7975    1.4081 H     1    ESP         0.0077
    490 H           2.5975    2.1299    1.4081 H     1    ESP         0.0087
    491 H           2.1433    2.2516    1.4081 H     1    ESP         0.0074
    492 H           2.9299    0.8892    1.4081 H     1    ESP        -0.0010
    493 H           3.4130    1.3433    1.0949 H     1    ESP         0.0069
    494 H           3.3273    1.8020    1.0949 H     1    ESP         0.0104
    495 H           3.0816    2.1987    1.0949 H     1    ESP         0.0123
    496 H           2.7093    2.4799    1.0949 H     1    ESP         0.0129
    497 H           2.2605    2.6076    1.0949 H     1    ESP         0.0124
    498 H           1.7959    2.5645    1.0949 H     1    ESP         0.0112
    499 H           3.0816    0.4880    1.0949 H     1    ESP        -0.0058
    500 H           3.3273    0.8847    1.0949 H     1    ESP         0.0015
    501 H           3.6715    1.3433    0.6926 H     1    ESP         0.0086
    502 H           3.5967    1.8156    0.6926 H     1    ESP         0.0123
    503 H           3.3797    2.2416    0.6926 H     1    ESP         0.0145
    504 H           3.0416    2.5797    0.6926 H     1    ESP         0.0156
    505 H           2.6156    2.7967    0.6926 H     1    ESP         0.0159
    506 H           2.1433    2.8715    0.6926 H     1    ESP         0.0159
    507 H           1.6711    2.7967    0.6926 H     1    ESP         0.0165
    508 H           3.3797    0.4451    0.6926 H     1    ESP        -0.0049
    509 H           3.5967    0.8711    0.6926 H     1    ESP         0.0031
    510 H           3.8062    1.3433    0.2338 H     1    ESP         0.0095
    511 H           3.7389    1.8118    0.2338 H     1    ESP         0.0132
    512 H           3.5423    2.2424    0.2338 H     1    ESP         0.0155
    513 H           3.2323    2.6001    0.2338 H     1    ESP         0.0168
    514 H           2.8341    2.8560    0.2338 H     1    ESP         0.0173
    515 H           2.3800    2.9893    0.2338 H     1    ESP         0.0176
    516 H           1.9067    2.9893    0.2338 H     1    ESP         0.0185
    517 H           1.4525    2.8560    0.2338 H     1    ESP         0.0216
    518 H           3.5423    0.4443    0.2338 H     1    ESP        -0.0039
    519 H           3.7389    0.8748    0.2338 H     1    ESP         0.0040
    520 H           3.8062    1.3433   -0.2443 H     1    ESP         0.0095
    521 H           3.7389    1.8118   -0.2443 H     1    ESP         0.0131
    522 H           3.5423    2.2424   -0.2443 H     1    ESP         0.0155
    523 H           3.2323    2.6001   -0.2443 H     1    ESP         0.0168
    524 H           2.8341    2.8560   -0.2443 H     1    ESP         0.0173
    525 H           2.3800    2.9893   -0.2443 H     1    ESP         0.0176
    526 H           1.9067    2.9893   -0.2443 H     1    ESP         0.0185
    527 H           1.4525    2.8560   -0.2443 H     1    ESP         0.0215
    528 H           3.5423    0.4443   -0.2443 H     1    ESP        -0.0039
    529 H           3.7389    0.8748   -0.2443 H     1    ESP         0.0040
    530 H           3.6715    1.3433   -0.7031 H     1    ESP         0.0086
    531 H           3.5967    1.8156   -0.7031 H     1    ESP         0.0123
    532 H           3.3797    2.2416   -0.7031 H     1    ESP         0.0145
    533 H           3.0416    2.5797   -0.7031 H     1    ESP         0.0156
    534 H           2.6156    2.7967   -0.7031 H     1    ESP         0.0159
    535 H           2.1433    2.8715   -0.7031 H     1    ESP         0.0158
    536 H           1.6711    2.7967   -0.7031 H     1    ESP         0.0163
    537 H           3.3797    0.4451   -0.7031 H     1    ESP        -0.0049
    538 H           3.5967    0.8711   -0.7031 H     1    ESP         0.0030
    539 H           3.4130    1.3433   -1.1054 H     1    ESP         0.0068
    540 H           3.3273    1.8020   -1.1054 H     1    ESP         0.0104
    541 H           3.0816    2.1987   -1.1054 H     1    ESP         0.0123
    542 H           2.7093    2.4799   -1.1054 H     1    ESP         0.0129
    543 H           2.2605    2.6076   -1.1054 H     1    ESP         0.0124
    544 H           1.7959    2.5645   -1.1054 H     1    ESP         0.0111
    545 H           3.0816    0.4880   -1.1054 H     1    ESP        -0.0059
    546 H           3.3273    0.8847   -1.1054 H     1    ESP         0.0014
    547 H           3.0516    1.3433   -1.4186 H     1    ESP         0.0044
    548 H           2.9299    1.7975   -1.4186 H     1    ESP         0.0077
    549 H           2.5975    2.1299   -1.4186 H     1    ESP         0.0086
    550 H           2.1433    2.2516   -1.4186 H     1    ESP         0.0073
    551 H           2.9299    0.8892   -1.4186 H     1    ESP        -0.0011
    552 H           2.6166    1.3433   -1.6172 H     1    ESP         0.0013
    553 H           2.3800    1.7532   -1.6172 H     1    ESP         0.0034
    554 H          -0.2301   -2.6637    1.6036 H     1    ESP         0.0101
    555 H           0.2432   -2.6637    1.6036 H     1    ESP         0.0064
    556 H          -0.7801   -2.7079    1.4049 H     1    ESP         0.0155
    557 H          -0.4476   -3.0404    1.4049 H     1    ESP         0.0153
    558 H           0.0065   -3.1621    1.4049 H     1    ESP         0.0132
    559 H           0.4606   -3.0404    1.4049 H     1    ESP         0.0088
    560 H           0.7931   -2.7079    1.4049 H     1    ESP         0.0022
    561 H          -1.2415   -2.4871    1.0918 H     1    ESP         0.0207
    562 H          -1.0730   -2.9222    1.0918 H     1    ESP         0.0200
    563 H          -0.7586   -3.2670    1.0918 H     1    ESP         0.0196
    564 H          -0.3410   -3.4750    1.0918 H     1    ESP         0.0184
    565 H           0.1237   -3.5181    1.0918 H     1    ESP         0.0160
    566 H           0.5724   -3.3904    1.0918 H     1    ESP         0.0119
    567 H           0.9448   -3.1092    1.0918 H     1    ESP         0.0060
    568 H           1.1904   -2.7125    1.0918 H     1    ESP        -0.0021
    569 H          -1.4469   -2.7260    0.6895 H     1    ESP         0.0244
    570 H          -1.2298   -3.1521    0.6895 H     1    ESP         0.0231
    571 H          -0.8917   -3.4901    0.6895 H     1    ESP         0.0223
    572 H          -0.4657   -3.7072    0.6895 H     1    ESP         0.0212
    573 H           0.0065   -3.7820    0.6895 H     1    ESP         0.0192
    574 H           0.4787   -3.7072    0.6895 H     1    ESP         0.0158
    575 H           0.9047   -3.4901    0.6895 H     1    ESP         0.0108
    576 H           1.2428   -3.1521    0.6895 H     1    ESP         0.0038
    577 H           1.4599   -2.7260    0.6895 H     1    ESP        -0.0061
    578 H          -1.5890   -2.7223    0.2307 H     1    ESP         0.0269
    579 H          -1.3924   -3.1528    0.2307 H     1    ESP         0.0248
    580 H          -1.0825   -3.5105    0.2307 H     1    ESP         0.0240
    581 H          -0.6843   -3.7664    0.2307 H     1    ESP         0.0231
    582 H          -0.2301   -3.8998    0.2307 H     1    ESP         0.0215
    583 H           0.2432   -3.8998    0.2307 H     1    ESP         0.0190
    584 H           0.6973   -3.7664    0.2307 H     1    ESP         0.0152
    585 H           1.0955   -3.5105    0.2307 H     1    ESP         0.0097
    586 H           1.4054   -3.1528    0.2307 H     1    ESP         0.0020
    587 H           1.6020   -2.7223    0.2307 H     1    ESP        -0.0092
    588 H          -1.5890   -2.7223   -0.2475 H     1    ESP         0.0269
    589 H          -1.3924   -3.1528   -0.2475 H     1    ESP         0.0248
    590 H          -1.0825   -3.5105   -0.2475 H     1    ESP         0.0240
    591 H          -0.6843   -3.7664   -0.2475 H     1    ESP         0.0231
    592 H          -0.2301   -3.8998   -0.2475 H     1    ESP         0.0215
    593 H           0.2432   -3.8998   -0.2475 H     1    ESP         0.0190
    594 H           0.6973   -3.7664   -0.2475 H     1    ESP         0.0152
    595 H           1.0955   -3.5105   -0.2475 H     1    ESP         0.0097
    596 H           1.4054   -3.1528   -0.2475 H     1    ESP         0.0020
    597 H           1.6020   -2.7223   -0.2475 H     1    ESP        -0.0092
    598 H          -1.4469   -2.7260   -0.7063 H     1    ESP         0.0243
    599 H          -1.2298   -3.1521   -0.7063 H     1    ESP         0.0230
    600 H          -0.8917   -3.4901   -0.7063 H     1    ESP         0.0223
    601 H          -0.4657   -3.7072   -0.7063 H     1    ESP         0.0212
    602 H           0.0065   -3.7820   -0.7063 H     1    ESP         0.0192
    603 H           0.4787   -3.7072   -0.7063 H     1    ESP         0.0158
    604 H           0.9047   -3.4901   -0.7063 H     1    ESP         0.0109
    605 H           1.2428   -3.1521   -0.7063 H     1    ESP         0.0038
    606 H           1.4599   -2.7260   -0.7063 H     1    ESP        -0.0062
    607 H          -1.2415   -2.4871   -1.1085 H     1    ESP         0.0205
    608 H          -1.0730   -2.9222   -1.1085 H     1    ESP         0.0200
    609 H          -0.7586   -3.2670   -1.1085 H     1    ESP         0.0196
    610 H          -0.3410   -3.4750   -1.1085 H     1    ESP         0.0184
    611 H           0.1237   -3.5181   -1.1085 H     1    ESP         0.0160
    612 H           0.5724   -3.3904   -1.1085 H     1    ESP         0.0120
    613 H           0.9448   -3.1092   -1.1085 H     1    ESP         0.0060
    614 H           1.1904   -2.7125   -1.1085 H     1    ESP        -0.0021
    615 H          -0.7801   -2.7079   -1.4217 H     1    ESP         0.0155
    616 H          -0.4476   -3.0404   -1.4217 H     1    ESP         0.0153
    617 H           0.0065   -3.1621   -1.4217 H     1    ESP         0.0132
    618 H           0.4606   -3.0404   -1.4217 H     1    ESP         0.0089
    619 H           0.7931   -2.7079   -1.4217 H     1    ESP         0.0022
    620 H          -0.2301   -2.6637   -1.6203 H     1    ESP         0.0101
    621 H           0.2432   -2.6637   -1.6203 H     1    ESP         0.0064
    622 H          -0.0292    1.2400    2.4041 H     1    ESP        -0.0095
    623 H           0.4390    1.2400    2.3580 H     1    ESP        -0.0114
    624 H           0.2049    1.6455    2.3580 H     1    ESP        -0.0085
    625 H          -0.2633    1.6455    2.3580 H     1    ESP        -0.0064
    626 H           0.2049    0.8345    2.3580 H     1    ESP        -0.0112
    627 H           0.7662    1.6992    2.2214 H     1    ESP        -0.0095
    628 H           0.4300    2.0354    2.2214 H     1    ESP        -0.0059
    629 H          -0.0292    2.1585    2.2214 H     1    ESP        -0.0031
    630 H          -0.4885    2.0354    2.2214 H     1    ESP        -0.0020
    631 H          -0.8246    1.6992    2.2214 H     1    ESP        -0.0026
    632 H           0.9922    2.0971    1.9996 H     1    ESP        -0.0053
    633 H           0.6374    2.3948    1.9996 H     1    ESP        -0.0019
    634 H           0.2023    2.5531    1.9996 H     1    ESP         0.0009
    635 H          -0.2608    2.5531    1.9996 H     1    ESP         0.0029
    636 H          -0.6959    2.3948    1.9996 H     1    ESP         0.0035
    637 H          -1.0507    2.0971    1.9996 H     1    ESP         0.0028
    638 H           1.1291    2.4803    1.7012 H     1    ESP         0.0008
    639 H           0.7515    2.7468    1.7012 H     1    ESP         0.0037
    640 H           0.3160    2.9016    1.7012 H     1    ESP         0.0066
    641 H          -1.3457    2.3110    1.7012 H     1    ESP         0.0085
    642 H           1.1624    2.8407    1.3375 H     1    ESP         0.0077
    643 H           1.2785    3.1972    0.4723 H     1    ESP         0.0174
    644 H           1.3629    3.1950    0.0041 H     1    ESP         0.0187
    645 H           1.2785    3.1972   -0.4641 H     1    ESP         0.0173
    646 H           1.1624    2.8407   -1.3293 H     1    ESP         0.0076
    647 H           1.1291    2.4803   -1.6930 H     1    ESP         0.0007
    648 H           0.7515    2.7468   -1.6930 H     1    ESP         0.0035
    649 H           0.3160    2.9016   -1.6930 H     1    ESP         0.0064
    650 H          -1.3457    2.3110   -1.6930 H     1    ESP         0.0081
    651 H           0.9922    2.0971   -1.9914 H     1    ESP        -0.0054
    652 H           0.6374    2.3948   -1.9914 H     1    ESP        -0.0021
    653 H           0.2023    2.5531   -1.9914 H     1    ESP         0.0007
    654 H          -0.2608    2.5531   -1.9914 H     1    ESP         0.0026
    655 H          -0.6959    2.3948   -1.9914 H     1    ESP         0.0032
    656 H          -1.0507    2.0971   -1.9914 H     1    ESP         0.0025
    657 H           0.7662    1.6992   -2.2132 H     1    ESP        -0.0096
    658 H           0.4300    2.0354   -2.2132 H     1    ESP        -0.0061
    659 H          -0.0292    2.1585   -2.2132 H     1    ESP        -0.0034
    660 H          -0.4885    2.0354   -2.2132 H     1    ESP        -0.0023
    661 H          -0.8246    1.6992   -2.2132 H     1    ESP        -0.0029
    662 H           0.4390    1.2400   -2.3498 H     1    ESP        -0.0115
    663 H           0.2049    1.6455   -2.3498 H     1    ESP        -0.0086
    664 H          -0.2633    1.6455   -2.3498 H     1    ESP        -0.0066
    665 H           0.2049    0.8345   -2.3498 H     1    ESP        -0.0113
    666 H          -0.0292    1.2400   -2.3959 H     1    ESP        -0.0097
    667 H           1.2420    0.7411    2.3969 H     1    ESP        -0.0117
    668 H           1.7102    0.7411    2.3508 H     1    ESP        -0.0108
    669 H           1.4761    1.1466    2.3508 H     1    ESP        -0.0097
    670 H           1.0079    1.1466    2.3508 H     1    ESP        -0.0115
    671 H           0.7738    0.7411    2.3508 H     1    ESP        -0.0123
    672 H           1.0079    0.3356    2.3508 H     1    ESP        -0.0124
    673 H           1.4761    0.3356    2.3508 H     1    ESP        -0.0129
    674 H           2.1605    0.7411    2.2142 H     1    ESP        -0.0096
    675 H           2.0374    1.2003    2.2142 H     1    ESP        -0.0069
    676 H           1.7012    1.5365    2.2142 H     1    ESP        -0.0065
    677 H           1.2420    1.6596    2.2142 H     1    ESP        -0.0082
    678 H           2.0374    0.2819    2.2142 H     1    ESP        -0.0135
    679 H           2.5754    0.7411    1.9924 H     1    ESP        -0.0080
    680 H           2.4950    1.1972    1.9924 H     1    ESP        -0.0042
    681 H           2.2634    1.5982    1.9924 H     1    ESP        -0.0023
    682 H           1.9087    1.8958    1.9924 H     1    ESP        -0.0022
    683 H           1.4736    2.0542    1.9924 H     1    ESP        -0.0035
    684 H           2.4950    0.2851    1.9924 H     1    ESP        -0.0132
    685 H           2.9391    0.7411    1.6939 H     1    ESP        -0.0058
    686 H           2.0228    2.2479    1.6939 H     1    ESP         0.0029
    687 H           1.5873    2.4027    1.6939 H     1    ESP         0.0018
    688 H           2.8762    0.2833    1.6939 H     1    ESP        -0.0126
    689 H           1.5885    2.7063    1.3302 H     1    ESP         0.0073
    690 H           3.1838    0.2809    1.3302 H     1    ESP        -0.0115
    691 H           1.4738    2.9463    0.9153 H     1    ESP         0.0128
    692 H           1.4738    2.9463   -0.9216 H     1    ESP         0.0127
    693 H           1.5885    2.7063   -1.3365 H     1    ESP         0.0072
    694 H           3.1838    0.2809   -1.3365 H     1    ESP        -0.0116
    695 H           2.9391    0.7411   -1.7002 H     1    ESP        -0.0059
    696 H           2.0228    2.2479   -1.7002 H     1    ESP         0.0029
    697 H           1.5873    2.4027   -1.7002 H     1    ESP         0.0017
    698 H           2.8762    0.2833   -1.7002 H     1    ESP        -0.0127
    699 H           2.5754    0.7411   -1.9987 H     1    ESP        -0.0081
    700 H           2.4950    1.1972   -1.9987 H     1    ESP        -0.0042
    701 H           2.2634    1.5982   -1.9987 H     1    ESP        -0.0023
    702 H           1.9087    1.8958   -1.9987 H     1    ESP        -0.0022
    703 H           1.4736    2.0542   -1.9987 H     1    ESP        -0.0035
    704 H           2.4950    0.2851   -1.9987 H     1    ESP        -0.0134
    705 H           2.1605    0.7411   -2.2204 H     1    ESP        -0.0097
    706 H           2.0374    1.2003   -2.2204 H     1    ESP        -0.0070
    707 H           1.7012    1.5365   -2.2204 H     1    ESP        -0.0065
    708 H           1.2420    1.6596   -2.2204 H     1    ESP        -0.0082
    709 H           2.0374    0.2819   -2.2204 H     1    ESP        -0.0136
    710 H           1.7102    0.7411   -2.3570 H     1    ESP        -0.0108
    711 H           1.4761    1.1466   -2.3570 H     1    ESP        -0.0097
    712 H           1.0079    1.1466   -2.3570 H     1    ESP        -0.0114
    713 H           0.7738    0.7411   -2.3570 H     1    ESP        -0.0123
    714 H           1.0079    0.3356   -2.3570 H     1    ESP        -0.0125
    715 H           1.4761    0.3356   -2.3570 H     1    ESP        -0.0130
    716 H           1.2420    0.7411   -2.4031 H     1    ESP        -0.0117
    717 H           1.3546   -0.6324    2.3912 H     1    ESP        -0.0159
    718 H           1.8228   -0.6324    2.3450 H     1    ESP        -0.0182
    719 H           1.5887   -0.2269    2.3450 H     1    ESP        -0.0156
    720 H           1.1205   -0.2269    2.3450 H     1    ESP        -0.0137
    721 H           0.8863   -0.6324    2.3450 H     1    ESP        -0.0134
    722 H           1.1205   -1.0379    2.3450 H     1    ESP        -0.0155
    723 H           1.5887   -1.0379    2.3450 H     1    ESP        -0.0182
    724 H           2.2730   -0.6324    2.2085 H     1    ESP        -0.0203
    725 H           2.1500   -0.1732    2.2085 H     1    ESP        -0.0171
    726 H           0.5592   -0.1732    2.2085 H     1    ESP        -0.0105
    727 H           1.3546   -1.5508    2.2085 H     1    ESP        -0.0172
    728 H           1.8138   -1.4278    2.2085 H     1    ESP        -0.0204
    729 H           2.1500   -1.0916    2.2085 H     1    ESP        -0.0217
    730 H           2.6879   -0.6324    1.9867 H     1    ESP        -0.0221
    731 H           2.6075   -0.1763    1.9867 H     1    ESP        -0.0182
    732 H           1.5861   -1.9455    1.9867 H     1    ESP        -0.0183
    733 H           2.0212   -1.7871    1.9867 H     1    ESP        -0.0223
    734 H           2.3760   -1.4894    1.9867 H     1    ESP        -0.0246
    735 H           2.6075   -1.0884    1.9867 H     1    ESP        -0.0245
    736 H           3.0516   -0.6324    1.6882 H     1    ESP        -0.0237
    737 H           2.9887   -0.1745    1.6882 H     1    ESP        -0.0189
    738 H           1.6998   -2.2939    1.6882 H     1    ESP        -0.0178
    739 H           2.1353   -2.1392    1.6882 H     1    ESP        -0.0231
    740 H           2.5129   -1.8726    1.6882 H     1    ESP        -0.0266
    741 H           2.8046   -1.5141    1.6882 H     1    ESP        -0.0280
    742 H           2.9887   -1.0902    1.6882 H     1    ESP        -0.0269
    743 H           3.3501   -0.6324    1.3245 H     1    ESP        -0.0250
    744 H           3.2963   -0.1722    1.3245 H     1    ESP        -0.0192
    745 H           1.7011   -2.5976    1.3245 H     1    ESP        -0.0151
    746 H           2.1449   -2.4647    1.3245 H     1    ESP        -0.0221
    747 H           2.5462   -2.2330    1.3245 H     1    ESP        -0.0272
    748 H           2.8832   -1.9151    1.3245 H     1    ESP        -0.0301
    749 H           3.1378   -1.5280    1.3245 H     1    ESP        -0.0307
    750 H           3.2963   -1.0926    1.3245 H     1    ESP        -0.0289
    751 H           3.5719   -0.6324    0.9096 H     1    ESP        -0.0259
    752 H           3.5234   -0.1714    0.9096 H     1    ESP        -0.0193
    753 H           2.0397   -2.7412    0.9096 H     1    ESP        -0.0186
    754 H           2.4632   -2.5526    0.9096 H     1    ESP        -0.0256
    755 H           2.8382   -2.2802    0.9096 H     1    ESP        -0.0304
    756 H           3.1484   -1.9357    0.9096 H     1    ESP        -0.0328
    757 H           3.3802   -1.5342    0.9096 H     1    ESP        -0.0328
    758 H           3.5234   -1.0934    0.9096 H     1    ESP        -0.0304
    759 H           3.7084   -0.6324    0.4594 H     1    ESP        -0.0264
    760 H           3.6632   -0.1732    0.4594 H     1    ESP        -0.0193
    761 H           1.8138   -2.9410    0.4594 H     1    ESP        -0.0117
    762 H           2.2554   -2.8071    0.4594 H     1    ESP        -0.0212
    763 H           2.6623   -2.5896    0.4594 H     1    ESP        -0.0280
    764 H           3.0190   -2.2968    0.4594 H     1    ESP        -0.0324
    765 H           3.3117   -1.9401    0.4594 H     1    ESP        -0.0344
    766 H           3.5293   -1.5332    0.4594 H     1    ESP        -0.0340
    767 H           3.6632   -1.0916    0.4594 H     1    ESP        -0.0314
    768 H           3.7546   -0.6324   -0.0088 H     1    ESP        -0.0266
    769 H           3.7112   -0.1782   -0.0088 H     1    ESP        -0.0194
    770 H           1.9204   -2.9647   -0.0088 H     1    ESP        -0.0135
    771 H           2.3516   -2.8155   -0.0088 H     1    ESP        -0.0226
    772 H           2.7467   -2.5874   -0.0088 H     1    ESP        -0.0291
    773 H           3.0915   -2.2886   -0.0088 H     1    ESP        -0.0332
    774 H           3.3736   -1.9299   -0.0088 H     1    ESP        -0.0350
    775 H           3.5826   -1.5244   -0.0088 H     1    ESP        -0.0344
    776 H           3.7112   -1.0866   -0.0088 H     1    ESP        -0.0317
    777 H           3.7084   -0.6324   -0.4771 H     1    ESP        -0.0265
    778 H           3.6632   -0.1732   -0.4771 H     1    ESP        -0.0193
    779 H           1.8138   -2.9410   -0.4771 H     1    ESP        -0.0117
    780 H           2.2554   -2.8071   -0.4771 H     1    ESP        -0.0213
    781 H           2.6623   -2.5896   -0.4771 H     1    ESP        -0.0281
    782 H           3.0190   -2.2968   -0.4771 H     1    ESP        -0.0325
    783 H           3.3117   -1.9401   -0.4771 H     1    ESP        -0.0345
    784 H           3.5293   -1.5332   -0.4771 H     1    ESP        -0.0341
    785 H           3.6632   -1.0916   -0.4771 H     1    ESP        -0.0314
    786 H           3.5719   -0.6324   -0.9273 H     1    ESP        -0.0260
    787 H           3.5234   -0.1714   -0.9273 H     1    ESP        -0.0194
    788 H           2.0397   -2.7412   -0.9273 H     1    ESP        -0.0187
    789 H           2.4632   -2.5526   -0.9273 H     1    ESP        -0.0257
    790 H           2.8382   -2.2802   -0.9273 H     1    ESP        -0.0305
    791 H           3.1484   -1.9357   -0.9273 H     1    ESP        -0.0329
    792 H           3.3802   -1.5342   -0.9273 H     1    ESP        -0.0329
    793 H           3.5234   -1.0934   -0.9273 H     1    ESP        -0.0306
    794 H           3.3501   -0.6324   -1.3422 H     1    ESP        -0.0252
    795 H           3.2963   -0.1722   -1.3422 H     1    ESP        -0.0194
    796 H           1.7011   -2.5976   -1.3422 H     1    ESP        -0.0152
    797 H           2.1449   -2.4647   -1.3422 H     1    ESP        -0.0222
    798 H           2.5462   -2.2330   -1.3422 H     1    ESP        -0.0273
    799 H           2.8832   -1.9151   -1.3422 H     1    ESP        -0.0303
    800 H           3.1378   -1.5280   -1.3422 H     1    ESP        -0.0309
    801 H           3.2963   -1.0926   -1.3422 H     1    ESP        -0.0291
    802 H           3.0516   -0.6324   -1.7059 H     1    ESP        -0.0239
    803 H           2.9887   -0.1745   -1.7059 H     1    ESP        -0.0191
    804 H           1.6998   -2.2939   -1.7059 H     1    ESP        -0.0179
    805 H           2.1353   -2.1392   -1.7059 H     1    ESP        -0.0232
    806 H           2.5129   -1.8726   -1.7059 H     1    ESP        -0.0268
    807 H           2.8046   -1.5141   -1.7059 H     1    ESP        -0.0282
    808 H           2.9887   -1.0902   -1.7059 H     1    ESP        -0.0271
    809 H           2.6879   -0.6324   -2.0044 H     1    ESP        -0.0223
    810 H           2.6075   -0.1763   -2.0044 H     1    ESP        -0.0184
    811 H           1.5861   -1.9455   -2.0044 H     1    ESP        -0.0185
    812 H           2.0212   -1.7871   -2.0044 H     1    ESP        -0.0225
    813 H           2.3760   -1.4894   -2.0044 H     1    ESP        -0.0248
    814 H           2.6075   -1.0884   -2.0044 H     1    ESP        -0.0247
    815 H           2.2730   -0.6324   -2.2262 H     1    ESP        -0.0205
    816 H           2.1500   -0.1732   -2.2262 H     1    ESP        -0.0173
    817 H           0.5592   -0.1732   -2.2262 H     1    ESP        -0.0107
    818 H           1.3546   -1.5508   -2.2262 H     1    ESP        -0.0174
    819 H           1.8138   -1.4278   -2.2262 H     1    ESP        -0.0206
    820 H           2.1500   -1.0916   -2.2262 H     1    ESP        -0.0219
    821 H           1.8228   -0.6324   -2.3627 H     1    ESP        -0.0183
    822 H           1.5887   -0.2269   -2.3627 H     1    ESP        -0.0158
    823 H           1.1205   -0.2269   -2.3627 H     1    ESP        -0.0139
    824 H           0.8863   -0.6324   -2.3627 H     1    ESP        -0.0136
    825 H           1.1205   -1.0379   -2.3627 H     1    ESP        -0.0157
    826 H           1.5887   -1.0379   -2.3627 H     1    ESP        -0.0184
    827 H           1.3546   -0.6324   -2.4088 H     1    ESP        -0.0161
    828 H           0.1769   -1.1831    2.3948 H     1    ESP        -0.0085
    829 H           0.6451   -1.1831    2.3486 H     1    ESP        -0.0118
    830 H           0.4110   -0.7776    2.3486 H     1    ESP        -0.0103
    831 H          -0.0573   -1.5886    2.3486 H     1    ESP        -0.0055
    832 H           0.4110   -1.5886    2.3486 H     1    ESP        -0.0086
    833 H          -0.2824   -1.9785    2.2121 H     1    ESP        -0.0015
    834 H           0.1769   -2.1016    2.2121 H     1    ESP        -0.0036
    835 H           0.6361   -1.9785    2.2121 H     1    ESP        -0.0081
    836 H           0.9722   -1.6424    2.2121 H     1    ESP        -0.0135
    837 H          -0.8446   -2.0402    1.9903 H     1    ESP         0.0033
    838 H          -0.4898   -2.3379    1.9903 H     1    ESP         0.0036
    839 H          -0.0547   -2.4962    1.9903 H     1    ESP         0.0022
    840 H           0.4084   -2.4962    1.9903 H     1    ESP        -0.0014
    841 H           0.8435   -2.3379    1.9903 H     1    ESP        -0.0069
    842 H           1.1983   -2.0402    1.9903 H     1    ESP        -0.0137
    843 H           0.9576   -2.6899    1.6918 H     1    ESP        -0.0037
    844 H           1.3352   -2.4234    1.6918 H     1    ESP        -0.0117
    845 H           1.3685   -2.7838    1.3281 H     1    ESP        -0.0070
    846 H           1.6605   -2.8309    0.9132 H     1    ESP        -0.0108
    847 H           1.6605   -2.8309   -0.9237 H     1    ESP        -0.0108
    848 H           1.3685   -2.7838   -1.3386 H     1    ESP        -0.0070
    849 H           0.9576   -2.6899   -1.7023 H     1    ESP        -0.0037
    850 H           1.3352   -2.4234   -1.7023 H     1    ESP        -0.0118
    851 H          -0.8446   -2.0402   -2.0008 H     1    ESP         0.0033
    852 H          -0.4898   -2.3379   -2.0008 H     1    ESP         0.0036
    853 H          -0.0547   -2.4962   -2.0008 H     1    ESP         0.0022
    854 H           0.4084   -2.4962   -2.0008 H     1    ESP        -0.0014
    855 H           0.8435   -2.3379   -2.0008 H     1    ESP        -0.0069
    856 H           1.1983   -2.0402   -2.0008 H     1    ESP        -0.0138
    857 H          -0.2824   -1.9785   -2.2225 H     1    ESP        -0.0015
    858 H           0.1769   -2.1016   -2.2225 H     1    ESP        -0.0036
    859 H           0.6361   -1.9785   -2.2225 H     1    ESP        -0.0082
    860 H           0.9722   -1.6424   -2.2225 H     1    ESP        -0.0136
    861 H           0.6451   -1.1831   -2.3591 H     1    ESP        -0.0119
    862 H           0.4110   -0.7776   -2.3591 H     1    ESP        -0.0105
    863 H          -0.0573   -1.5886   -2.3591 H     1    ESP        -0.0056
    864 H           0.4110   -1.5886   -2.3591 H     1    ESP        -0.0087
    865 H           0.1769   -1.1831   -2.4052 H     1    ESP        -0.0086
    866 H          -1.1716   -0.0655    2.8056 H     1    ESP        -0.0063
    867 H          -0.7107   -0.0655    2.7674 H     1    ESP        -0.0071
    868 H          -0.9412    0.3336    2.7674 H     1    ESP        -0.0066
    869 H          -1.4020    0.3336    2.7674 H     1    ESP        -0.0057
    870 H          -1.6325   -0.0655    2.7674 H     1    ESP        -0.0055
    871 H          -1.4020   -0.4646    2.7674 H     1    ESP        -0.0056
    872 H          -0.9412   -0.4646    2.7674 H     1    ESP        -0.0063
    873 H          -0.2625   -0.0655    2.6539 H     1    ESP        -0.0080
    874 H          -0.3843    0.3891    2.6539 H     1    ESP        -0.0080
    875 H          -0.7170    0.7219    2.6539 H     1    ESP        -0.0069
    876 H          -1.1716    0.8437    2.6539 H     1    ESP        -0.0052
    877 H          -1.6262    0.7219    2.6539 H     1    ESP        -0.0043
    878 H          -1.9590    0.3891    2.6539 H     1    ESP        -0.0044
    879 H          -2.0808   -0.0655    2.6539 H     1    ESP        -0.0046
    880 H          -1.9590   -0.5201    2.6539 H     1    ESP        -0.0044
    881 H          -1.6262   -0.8528    2.6539 H     1    ESP        -0.0041
    882 H          -1.1716   -0.9747    2.6539 H     1    ESP        -0.0046
    883 H          -0.7170   -0.8528    2.6539 H     1    ESP        -0.0059
    884 H          -0.3843   -0.5201    2.6539 H     1    ESP        -0.0073
    885 H           0.1610   -0.0655    2.4681 H     1    ESP        -0.0090
    886 H           0.0807    0.3903    2.4681 H     1    ESP        -0.0095
    887 H          -0.1507    0.7911    2.4681 H     1    ESP        -0.0093
    888 H          -0.5053    1.0886    2.4681 H     1    ESP        -0.0074
    889 H          -0.9402    1.2469    2.4681 H     1    ESP        -0.0047
    890 H          -1.4030    1.2469    2.4681 H     1    ESP        -0.0027
    891 H          -1.8379    1.0886    2.4681 H     1    ESP        -0.0021
    892 H          -2.1925    0.7911    2.4681 H     1    ESP        -0.0025
    893 H          -2.4239    0.3903    2.4681 H     1    ESP        -0.0032
    894 H          -2.5043   -0.0655    2.4681 H     1    ESP        -0.0036
    895 H          -2.4239   -0.5213    2.4681 H     1    ESP        -0.0034
    896 H          -2.1925   -0.9221    2.4681 H     1    ESP        -0.0027
    897 H          -1.8379   -1.2196    2.4681 H     1    ESP        -0.0020
    898 H          -1.4030   -1.3779    2.4681 H     1    ESP        -0.0020
    899 H          -0.9402   -1.3779    2.4681 H     1    ESP        -0.0031
    900 H          -0.5053   -1.2196    2.4681 H     1    ESP        -0.0052
    901 H          -0.1507   -0.9221    2.4681 H     1    ESP        -0.0074
    902 H           0.0807   -0.5213    2.4681 H     1    ESP        -0.0086
    903 H           0.5482   -0.0655    2.2152 H     1    ESP        -0.0105
    904 H          -1.2890    1.6503    2.2152 H     1    ESP        -0.0003
    905 H          -1.7475    1.5550    2.2152 H     1    ESP         0.0008
    906 H          -2.1634    1.3395    2.2152 H     1    ESP         0.0006
    907 H          -2.5057    1.0198    2.2152 H     1    ESP        -0.0004
    908 H          -2.7490    0.6197    2.2152 H     1    ESP        -0.0016
    909 H          -2.8754    0.1687    2.2152 H     1    ESP        -0.0024
    910 H          -2.8754   -0.2997    2.2152 H     1    ESP        -0.0026
    911 H          -2.7490   -0.7507    2.2152 H     1    ESP        -0.0020
    912 H          -2.5057   -1.1508    2.2152 H     1    ESP        -0.0008
    913 H          -2.1634   -1.4705    2.2152 H     1    ESP         0.0004
    914 H          -1.7475   -1.6860    2.2152 H     1    ESP         0.0013
    915 H          -1.2890   -1.7813    2.2152 H     1    ESP         0.0012
    916 H          -0.8217   -1.7493    2.2152 H     1    ESP        -0.0004
    917 H          -1.6300    1.9429    1.9020 H     1    ESP         0.0048
    918 H          -2.0654    1.7905    1.9020 H     1    ESP         0.0046
    919 H          -2.4560    1.5451    1.9020 H     1    ESP         0.0034
    920 H          -2.7822    1.2189    1.9020 H     1    ESP         0.0018
    921 H          -3.0276    0.8283    1.9020 H     1    ESP         0.0002
    922 H          -3.1800    0.3929    1.9020 H     1    ESP        -0.0009
    923 H          -3.2316   -0.0655    1.9020 H     1    ESP        -0.0015
    924 H          -3.1800   -0.5239    1.9020 H     1    ESP        -0.0013
    925 H          -3.0276   -0.9593    1.9020 H     1    ESP        -0.0003
    926 H          -2.7822   -1.3499    1.9020 H     1    ESP         0.0011
    927 H          -2.4560   -1.6761    1.9020 H     1    ESP         0.0029
    928 H          -2.0654   -1.9215    1.9020 H     1    ESP         0.0045
    929 H          -1.6300   -2.0739    1.9020 H     1    ESP         0.0056
    930 H          -1.1716   -2.1255    1.9020 H     1    ESP         0.0056
    931 H          -1.6289    2.2335    1.5371 H     1    ESP         0.0105
    932 H          -2.0686    2.1001    1.5371 H     1    ESP         0.0092
    933 H          -2.4739    1.8835    1.5371 H     1    ESP         0.0074
    934 H          -2.8291    1.5920    1.5371 H     1    ESP         0.0053
    935 H          -3.1206    1.2368    1.5371 H     1    ESP         0.0032
    936 H          -3.3372    0.8315    1.5371 H     1    ESP         0.0014
    937 H          -3.4706    0.3918    1.5371 H     1    ESP         0.0001
    938 H          -3.5157   -0.0655    1.5371 H     1    ESP        -0.0005
    939 H          -3.4706   -0.5228    1.5371 H     1    ESP        -0.0003
    940 H          -3.3372   -0.9625    1.5371 H     1    ESP         0.0007
    941 H          -3.1206   -1.3678    1.5371 H     1    ESP         0.0023
    942 H          -2.8291   -1.7230    1.5371 H     1    ESP         0.0043
    943 H          -2.4739   -2.0145    1.5371 H     1    ESP         0.0066
    944 H          -2.0686   -2.2311    1.5371 H     1    ESP         0.0087
    945 H          -1.6289   -2.3645    1.5371 H     1    ESP         0.0106
    946 H          -2.1794    2.2923    1.1304 H     1    ESP         0.0136
    947 H          -2.5842    2.0745    1.1304 H     1    ESP         0.0106
    948 H          -2.9436    1.7879    1.1304 H     1    ESP         0.0079
    949 H          -3.2461    1.4417    1.1304 H     1    ESP         0.0054
    950 H          -3.4818    1.0471    1.1304 H     1    ESP         0.0033
    951 H          -3.6434    0.6167    1.1304 H     1    ESP         0.0016
    952 H          -3.7255    0.1644    1.1304 H     1    ESP         0.0006
    953 H          -3.7255   -0.2953    1.1304 H     1    ESP         0.0004
    954 H          -3.6434   -0.7477    1.1304 H     1    ESP         0.0010
    955 H          -3.4818   -1.1780    1.1304 H     1    ESP         0.0023
    956 H          -3.2461   -1.5727    1.1304 H     1    ESP         0.0043
    957 H          -2.9436   -1.9189    1.1304 H     1    ESP         0.0067
    958 H          -2.5842   -2.2055    1.1304 H     1    ESP         0.0094
    959 H          -2.1794   -2.4233    1.1304 H     1    ESP         0.0123
    960 H          -1.7422   -2.5654    1.1304 H     1    ESP         0.0153
    961 H          -2.3936    2.3582    0.6930 H     1    ESP         0.0157
    962 H          -2.7856    2.1168    0.6930 H     1    ESP         0.0121
    963 H          -3.1312    1.8127    0.6930 H     1    ESP         0.0090
    964 H          -3.4204    1.4545    0.6930 H     1    ESP         0.0063
    965 H          -3.6450    1.0525    0.6930 H     1    ESP         0.0040
    966 H          -3.7983    0.6185    0.6930 H     1    ESP         0.0022
    967 H          -3.8762    0.1647    0.6930 H     1    ESP         0.0012
    968 H          -3.8762   -0.2957    0.6930 H     1    ESP         0.0010
    969 H          -3.7983   -0.7494    0.6930 H     1    ESP         0.0016
    970 H          -3.6450   -1.1835    0.6930 H     1    ESP         0.0030
    971 H          -3.4204   -1.5854    0.6930 H     1    ESP         0.0050
    972 H          -3.1312   -1.9436    0.6930 H     1    ESP         0.0076
    973 H          -2.7856   -2.2478    0.6930 H     1    ESP         0.0105
    974 H          -2.3936   -2.4892    0.6930 H     1    ESP         0.0138
    975 H          -1.9664   -2.6608    0.6930 H     1    ESP         0.0176
    976 H          -2.2925    2.4899    0.2368 H     1    ESP         0.0193
    977 H          -2.6978    2.2706    0.2368 H     1    ESP         0.0146
    978 H          -3.0615    1.9875    0.2368 H     1    ESP         0.0111
    979 H          -3.3737    1.6484    0.2368 H     1    ESP         0.0080
    980 H          -3.6257    1.2626    0.2368 H     1    ESP         0.0054
    981 H          -3.8109    0.8406    0.2368 H     1    ESP         0.0034
    982 H          -3.9240    0.3938    0.2368 H     1    ESP         0.0020
    983 H          -3.9620   -0.0655    0.2368 H     1    ESP         0.0013
    984 H          -3.9240   -0.5248    0.2368 H     1    ESP         0.0015
    985 H          -3.8109   -0.9715    0.2368 H     1    ESP         0.0025
    986 H          -3.6257   -1.3936    0.2368 H     1    ESP         0.0043
    987 H          -3.3737   -1.7794    0.2368 H     1    ESP         0.0067
    988 H          -3.0615   -2.1185    0.2368 H     1    ESP         0.0095
    989 H          -2.6978   -2.4016    0.2368 H     1    ESP         0.0128
    990 H          -2.2925   -2.6209    0.2368 H     1    ESP         0.0165
    991 H          -1.8566   -2.7705    0.2368 H     1    ESP         0.0214
    992 H          -2.2925    2.4899   -0.2256 H     1    ESP         0.0192
    993 H          -2.6978    2.2706   -0.2256 H     1    ESP         0.0146
    994 H          -3.0615    1.9875   -0.2256 H     1    ESP         0.0110
    995 H          -3.3737    1.6484   -0.2256 H     1    ESP         0.0080
    996 H          -3.6257    1.2626   -0.2256 H     1    ESP         0.0054
    997 H          -3.8109    0.8406   -0.2256 H     1    ESP         0.0034
    998 H          -3.9240    0.3938   -0.2256 H     1    ESP         0.0020
    999 H          -3.9620   -0.0655   -0.2256 H     1    ESP         0.0013
   1000 H          -3.9240   -0.5248   -0.2256 H     1    ESP         0.0015
   1001 H          -3.8109   -0.9715   -0.2256 H     1    ESP         0.0025
   1002 H          -3.6257   -1.3936   -0.2256 H     1    ESP         0.0043
   1003 H          -3.3737   -1.7794   -0.2256 H     1    ESP         0.0067
   1004 H          -3.0615   -2.1185   -0.2256 H     1    ESP         0.0095
   1005 H          -2.6978   -2.4016   -0.2256 H     1    ESP         0.0128
   1006 H          -2.2925   -2.6209   -0.2256 H     1    ESP         0.0166
   1007 H          -1.8566   -2.7705   -0.2256 H     1    ESP         0.0214
   1008 H          -2.3936    2.3582   -0.6817 H     1    ESP         0.0156
   1009 H          -2.7856    2.1168   -0.6817 H     1    ESP         0.0120
   1010 H          -3.1312    1.8127   -0.6817 H     1    ESP         0.0089
   1011 H          -3.4204    1.4545   -0.6817 H     1    ESP         0.0062
   1012 H          -3.6450    1.0525   -0.6817 H     1    ESP         0.0039
   1013 H          -3.7983    0.6185   -0.6817 H     1    ESP         0.0022
   1014 H          -3.8762    0.1647   -0.6817 H     1    ESP         0.0012
   1015 H          -3.8762   -0.2957   -0.6817 H     1    ESP         0.0010
   1016 H          -3.7983   -0.7494   -0.6817 H     1    ESP         0.0016
   1017 H          -3.6450   -1.1835   -0.6817 H     1    ESP         0.0030
   1018 H          -3.4204   -1.5854   -0.6817 H     1    ESP         0.0050
   1019 H          -3.1312   -1.9436   -0.6817 H     1    ESP         0.0076
   1020 H          -2.7856   -2.2478   -0.6817 H     1    ESP         0.0106
   1021 H          -2.3936   -2.4892   -0.6817 H     1    ESP         0.0139
   1022 H          -1.9664   -2.6608   -0.6817 H     1    ESP         0.0178
   1023 H          -2.1794    2.2923   -1.1191 H     1    ESP         0.0134
   1024 H          -2.5842    2.0745   -1.1191 H     1    ESP         0.0105
   1025 H          -2.9436    1.7879   -1.1191 H     1    ESP         0.0078
   1026 H          -3.2461    1.4417   -1.1191 H     1    ESP         0.0053
   1027 H          -3.4818    1.0471   -1.1191 H     1    ESP         0.0032
   1028 H          -3.6434    0.6167   -1.1191 H     1    ESP         0.0015
   1029 H          -3.7255    0.1644   -1.1191 H     1    ESP         0.0005
   1030 H          -3.7255   -0.2953   -1.1191 H     1    ESP         0.0003
   1031 H          -3.6434   -0.7477   -1.1191 H     1    ESP         0.0010
   1032 H          -3.4818   -1.1780   -1.1191 H     1    ESP         0.0023
   1033 H          -3.2461   -1.5727   -1.1191 H     1    ESP         0.0043
   1034 H          -2.9436   -1.9189   -1.1191 H     1    ESP         0.0068
   1035 H          -2.5842   -2.2055   -1.1191 H     1    ESP         0.0095
   1036 H          -2.1794   -2.4233   -1.1191 H     1    ESP         0.0124
   1037 H          -1.7422   -2.5654   -1.1191 H     1    ESP         0.0155
   1038 H          -1.6289    2.2335   -1.5258 H     1    ESP         0.0102
   1039 H          -2.0686    2.1001   -1.5258 H     1    ESP         0.0090
   1040 H          -2.4739    1.8835   -1.5258 H     1    ESP         0.0072
   1041 H          -2.8291    1.5920   -1.5258 H     1    ESP         0.0051
   1042 H          -3.1206    1.2368   -1.5258 H     1    ESP         0.0031
   1043 H          -3.3372    0.8315   -1.5258 H     1    ESP         0.0013
   1044 H          -3.4706    0.3918   -1.5258 H     1    ESP         0.0000
   1045 H          -3.5157   -0.0655   -1.5258 H     1    ESP        -0.0005
   1046 H          -3.4706   -0.5228   -1.5258 H     1    ESP        -0.0003
   1047 H          -3.3372   -0.9625   -1.5258 H     1    ESP         0.0007
   1048 H          -3.1206   -1.3678   -1.5258 H     1    ESP         0.0023
   1049 H          -2.8291   -1.7230   -1.5258 H     1    ESP         0.0044
   1050 H          -2.4739   -2.0145   -1.5258 H     1    ESP         0.0067
   1051 H          -2.0686   -2.2311   -1.5258 H     1    ESP         0.0089
   1052 H          -1.6289   -2.3645   -1.5258 H     1    ESP         0.0108
   1053 H          -1.6300    1.9429   -1.8908 H     1    ESP         0.0046
   1054 H          -2.0654    1.7905   -1.8908 H     1    ESP         0.0044
   1055 H          -2.4560    1.5451   -1.8908 H     1    ESP         0.0032
   1056 H          -2.7822    1.2189   -1.8908 H     1    ESP         0.0017
   1057 H          -3.0276    0.8283   -1.8908 H     1    ESP         0.0001
   1058 H          -3.1800    0.3929   -1.8908 H     1    ESP        -0.0011
   1059 H          -3.2316   -0.0655   -1.8908 H     1    ESP        -0.0016
   1060 H          -3.1800   -0.5239   -1.8908 H     1    ESP        -0.0013
   1061 H          -3.0276   -0.9593   -1.8908 H     1    ESP        -0.0004
   1062 H          -2.7822   -1.3499   -1.8908 H     1    ESP         0.0012
   1063 H          -2.4560   -1.6761   -1.8908 H     1    ESP         0.0029
   1064 H          -2.0654   -1.9215   -1.8908 H     1    ESP         0.0046
   1065 H          -1.6300   -2.0739   -1.8908 H     1    ESP         0.0057
   1066 H          -1.1716   -2.1255   -1.8908 H     1    ESP         0.0058
   1067 H           0.5482   -0.0655   -2.2040 H     1    ESP        -0.0106
   1068 H          -1.2890    1.6503   -2.2040 H     1    ESP        -0.0005
   1069 H          -1.7475    1.5550   -2.2040 H     1    ESP         0.0006
   1070 H          -2.1634    1.3395   -2.2040 H     1    ESP         0.0004
   1071 H          -2.5057    1.0198   -2.2040 H     1    ESP        -0.0006
   1072 H          -2.7490    0.6197   -2.2040 H     1    ESP        -0.0017
   1073 H          -2.8754    0.1687   -2.2040 H     1    ESP        -0.0025
   1074 H          -2.8754   -0.2997   -2.2040 H     1    ESP        -0.0026
   1075 H          -2.7490   -0.7507   -2.2040 H     1    ESP        -0.0020
   1076 H          -2.5057   -1.1508   -2.2040 H     1    ESP        -0.0008
   1077 H          -2.1634   -1.4705   -2.2040 H     1    ESP         0.0005
   1078 H          -1.7475   -1.6860   -2.2040 H     1    ESP         0.0014
   1079 H          -1.2890   -1.7813   -2.2040 H     1    ESP         0.0013
   1080 H          -0.8217   -1.7493   -2.2040 H     1    ESP        -0.0003
   1081 H           0.1610   -0.0655   -2.4569 H     1    ESP        -0.0091
   1082 H           0.0807    0.3903   -2.4569 H     1    ESP        -0.0096
   1083 H          -0.1507    0.7911   -2.4569 H     1    ESP        -0.0094
   1084 H          -0.5053    1.0886   -2.4569 H     1    ESP        -0.0076
   1085 H          -0.9402    1.2469   -2.4569 H     1    ESP        -0.0049
   1086 H          -1.4030    1.2469   -2.4569 H     1    ESP        -0.0029
   1087 H          -1.8379    1.0886   -2.4569 H     1    ESP        -0.0023
   1088 H          -2.1925    0.7911   -2.4569 H     1    ESP        -0.0027
   1089 H          -2.4239    0.3903   -2.4569 H     1    ESP        -0.0033
   1090 H          -2.5043   -0.0655   -2.4569 H     1    ESP        -0.0037
   1091 H          -2.4239   -0.5213   -2.4569 H     1    ESP        -0.0034
   1092 H          -2.1925   -0.9221   -2.4569 H     1    ESP        -0.0027
   1093 H          -1.8379   -1.2196   -2.4569 H     1    ESP        -0.0020
   1094 H          -1.4030   -1.3779   -2.4569 H     1    ESP        -0.0019
   1095 H          -0.9402   -1.3779   -2.4569 H     1    ESP        -0.0030
   1096 H          -0.5053   -1.2196   -2.4569 H     1    ESP        -0.0052
   1097 H          -0.1507   -0.9221   -2.4569 H     1    ESP        -0.0075
   1098 H           0.0807   -0.5213   -2.4569 H     1    ESP        -0.0087
   1099 H          -0.2625   -0.0655   -2.6427 H     1    ESP        -0.0080
   1100 H          -0.3843    0.3891   -2.6427 H     1    ESP        -0.0080
   1101 H          -0.7170    0.7219   -2.6427 H     1    ESP        -0.0070
   1102 H          -1.1716    0.8437   -2.6427 H     1    ESP        -0.0053
   1103 H          -1.6262    0.7219   -2.6427 H     1    ESP        -0.0044
   1104 H          -1.9590    0.3891   -2.6427 H     1    ESP        -0.0045
   1105 H          -2.0808   -0.0655   -2.6427 H     1    ESP        -0.0047
   1106 H          -1.9590   -0.5201   -2.6427 H     1    ESP        -0.0045
   1107 H          -1.6262   -0.8528   -2.6427 H     1    ESP        -0.0041
   1108 H          -1.1716   -0.9747   -2.6427 H     1    ESP        -0.0046
   1109 H          -0.7170   -0.8528   -2.6427 H     1    ESP        -0.0060
   1110 H          -0.3843   -0.5201   -2.6427 H     1    ESP        -0.0074
   1111 H          -0.7107   -0.0655   -2.7562 H     1    ESP        -0.0071
   1112 H          -0.9412    0.3336   -2.7562 H     1    ESP        -0.0067
   1113 H          -1.4020    0.3336   -2.7562 H     1    ESP        -0.0058
   1114 H          -1.6325   -0.0655   -2.7562 H     1    ESP        -0.0056
   1115 H          -1.4020   -0.4646   -2.7562 H     1    ESP        -0.0056
   1116 H          -0.9412   -0.4646   -2.7562 H     1    ESP        -0.0064
   1117 H          -1.1716   -0.0655   -2.7944 H     1    ESP        -0.0064
   1118 H          -0.5787    2.6709    1.8732 H     1    ESP         0.0066
   1119 H           0.0972    3.0457    1.7091 H     1    ESP         0.0086
   1120 H          -0.3489    3.1652    1.7091 H     1    ESP         0.0108
   1121 H          -0.7951    3.0457    1.7091 H     1    ESP         0.0113
   1122 H          -1.1216    2.7191    1.7091 H     1    ESP         0.0103
   1123 H           0.5920    3.1307    1.4461 H     1    ESP         0.0100
   1124 H           0.2186    3.4127    1.4461 H     1    ESP         0.0126
   1125 H          -0.2314    3.5407    1.4461 H     1    ESP         0.0142
   1126 H          -0.6973    3.4975    1.4461 H     1    ESP         0.0149
   1127 H          -1.1162    3.2890    1.4461 H     1    ESP         0.0149
   1128 H          -1.4314    2.9432    1.4461 H     1    ESP         0.0140
   1129 H          -1.6004    2.5069    1.4461 H     1    ESP         0.0127
   1130 H           0.9566    3.1631    1.0997 H     1    ESP         0.0126
   1131 H           0.6363    3.5083    1.0997 H     1    ESP         0.0144
   1132 H           0.2284    3.7438    1.0997 H     1    ESP         0.0159
   1133 H          -0.2308    3.8487    1.0997 H     1    ESP         0.0170
   1134 H          -0.7005    3.8135    1.0997 H     1    ESP         0.0176
   1135 H          -1.1390    3.6414    1.0997 H     1    ESP         0.0176
   1136 H          -1.5072    3.3477    1.0997 H     1    ESP         0.0172
   1137 H          -1.7726    2.9585    1.0997 H     1    ESP         0.0165
   1138 H          -1.9114    2.5084    1.0997 H     1    ESP         0.0160
   1139 H           0.9205    3.5424    0.6898 H     1    ESP         0.0163
   1140 H           0.5487    3.8277    0.6898 H     1    ESP         0.0172
   1141 H           0.1157    4.0070    0.6898 H     1    ESP         0.0182
   1142 H          -0.3489    4.0682    0.6898 H     1    ESP         0.0189
   1143 H          -0.8136    4.0070    0.6898 H     1    ESP         0.0193
   1144 H          -1.2465    3.8277    0.6898 H     1    ESP         0.0194
   1145 H          -1.6183    3.5424    0.6898 H     1    ESP         0.0190
   1146 H          -1.9036    3.1706    0.6898 H     1    ESP         0.0186
   1147 H          -2.0830    2.7376    0.6898 H     1    ESP         0.0183
   1148 H           1.0405    3.5777    0.2404 H     1    ESP         0.0177
   1149 H           0.6724    3.8822    0.2404 H     1    ESP         0.0181
   1150 H           0.2401    4.0857    0.2404 H     1    ESP         0.0189
   1151 H          -0.2292    4.1752    0.2404 H     1    ESP         0.0197
   1152 H          -0.7061    4.1452    0.2404 H     1    ESP         0.0201
   1153 H          -1.1605    3.9975    0.2404 H     1    ESP         0.0202
   1154 H          -1.5639    3.7415    0.2404 H     1    ESP         0.0200
   1155 H          -1.8909    3.3933    0.2404 H     1    ESP         0.0196
   1156 H          -2.1211    2.9746    0.2404 H     1    ESP         0.0194
   1157 H           1.0405    3.5777   -0.2224 H     1    ESP         0.0177
   1158 H           0.6724    3.8822   -0.2224 H     1    ESP         0.0181
   1159 H           0.2401    4.0857   -0.2224 H     1    ESP         0.0189
   1160 H          -0.2292    4.1752   -0.2224 H     1    ESP         0.0196
   1161 H          -0.7061    4.1452   -0.2224 H     1    ESP         0.0201
   1162 H          -1.1605    3.9975   -0.2224 H     1    ESP         0.0202
   1163 H          -1.5639    3.7415   -0.2224 H     1    ESP         0.0200
   1164 H          -1.8909    3.3933   -0.2224 H     1    ESP         0.0196
   1165 H          -2.1211    2.9746   -0.2224 H     1    ESP         0.0194
   1166 H           0.9205    3.5424   -0.6718 H     1    ESP         0.0163
   1167 H           0.5487    3.8277   -0.6718 H     1    ESP         0.0172
   1168 H           0.1157    4.0070   -0.6718 H     1    ESP         0.0181
   1169 H          -0.3489    4.0682   -0.6718 H     1    ESP         0.0189
   1170 H          -0.8136    4.0070   -0.6718 H     1    ESP         0.0193
   1171 H          -1.2465    3.8277   -0.6718 H     1    ESP         0.0193
   1172 H          -1.6183    3.5424   -0.6718 H     1    ESP         0.0190
   1173 H          -1.9036    3.1706   -0.6718 H     1    ESP         0.0185
   1174 H          -2.0830    2.7376   -0.6718 H     1    ESP         0.0183
   1175 H           0.9566    3.1631   -1.0817 H     1    ESP         0.0126
   1176 H           0.6363    3.5083   -1.0817 H     1    ESP         0.0143
   1177 H           0.2284    3.7438   -1.0817 H     1    ESP         0.0158
   1178 H          -0.2308    3.8487   -1.0817 H     1    ESP         0.0169
   1179 H          -0.7005    3.8135   -1.0817 H     1    ESP         0.0175
   1180 H          -1.1390    3.6414   -1.0817 H     1    ESP         0.0175
   1181 H          -1.5072    3.3477   -1.0817 H     1    ESP         0.0171
   1182 H          -1.7726    2.9585   -1.0817 H     1    ESP         0.0164
   1183 H          -1.9114    2.5084   -1.0817 H     1    ESP         0.0158
   1184 H           0.5920    3.1307   -1.4281 H     1    ESP         0.0099
   1185 H           0.2186    3.4127   -1.4281 H     1    ESP         0.0125
   1186 H          -0.2314    3.5407   -1.4281 H     1    ESP         0.0141
   1187 H          -0.6973    3.4975   -1.4281 H     1    ESP         0.0148
   1188 H          -1.1162    3.2890   -1.4281 H     1    ESP         0.0147
   1189 H          -1.4314    2.9432   -1.4281 H     1    ESP         0.0139
   1190 H          -1.6004    2.5069   -1.4281 H     1    ESP         0.0126
   1191 H           0.0972    3.0457   -1.6911 H     1    ESP         0.0084
   1192 H          -0.3489    3.1652   -1.6911 H     1    ESP         0.0106
   1193 H          -0.7951    3.0457   -1.6911 H     1    ESP         0.0112
   1194 H          -1.1216    2.7191   -1.6911 H     1    ESP         0.0101
   1195 H          -0.5787    2.6709   -1.8552 H     1    ESP         0.0064
   1196 H           3.0356    1.3433    1.6948 H     1    ESP         0.0006
   1197 H           2.9161    1.7895    1.6948 H     1    ESP         0.0035
   1198 H           2.5895    2.1161    1.6948 H     1    ESP         0.0044
   1199 H           2.1433    2.2356    1.6948 H     1    ESP         0.0034
   1200 H           3.4165    1.3433    1.4319 H     1    ESP         0.0025
   1201 H           3.3306    1.8033    1.4319 H     1    ESP         0.0056
   1202 H           3.0842    2.2011    1.4319 H     1    ESP         0.0073
   1203 H           2.7109    2.4830    1.4319 H     1    ESP         0.0080
   1204 H           2.2608    2.6111    1.4319 H     1    ESP         0.0076
   1205 H           3.3306    0.8834    1.4319 H     1    ESP        -0.0021
   1206 H           3.7235    1.3433    1.0854 H     1    ESP         0.0040
   1207 H           3.6533    1.8091    1.0854 H     1    ESP         0.0071
   1208 H           3.4489    2.2334    1.0854 H     1    ESP         0.0091
   1209 H           3.1285    2.5787    1.0854 H     1    ESP         0.0103
   1210 H           2.7206    2.8142    1.0854 H     1    ESP         0.0108
   1211 H           2.2614    2.9190    1.0854 H     1    ESP         0.0109
   1212 H           1.7917    2.8838    1.0854 H     1    ESP         0.0108
   1213 H           3.4489    0.4532    1.0854 H     1    ESP        -0.0070
   1214 H           3.6533    0.8776    1.0854 H     1    ESP        -0.0006
   1215 H           3.9386    1.3433    0.6756 H     1    ESP         0.0050
   1216 H           3.8774    1.8080    0.6756 H     1    ESP         0.0081
   1217 H           3.6981    2.2409    0.6756 H     1    ESP         0.0102
   1218 H           3.4128    2.6127    0.6756 H     1    ESP         0.0116
   1219 H           3.0410    2.8980    0.6756 H     1    ESP         0.0124
   1220 H           2.6080    3.0774    0.6756 H     1    ESP         0.0129
   1221 H           2.1433    3.1386    0.6756 H     1    ESP         0.0134
   1222 H           1.6787    3.0774    0.6756 H     1    ESP         0.0146
   1223 H           3.6981    0.4457    0.6756 H     1    ESP        -0.0059
   1224 H           3.8774    0.8787    0.6756 H     1    ESP         0.0005
   1225 H           4.0493    1.3433    0.2262 H     1    ESP         0.0055
   1226 H           3.9895    1.8173    0.2262 H     1    ESP         0.0086
   1227 H           3.8136    2.2616    0.2262 H     1    ESP         0.0108
   1228 H           3.5328    2.6481    0.2262 H     1    ESP         0.0123
   1229 H           3.1646    2.9526    0.2262 H     1    ESP         0.0132
   1230 H           2.7323    3.1560    0.2262 H     1    ESP         0.0138
   1231 H           2.2630    3.2456    0.2262 H     1    ESP         0.0145
   1232 H           1.7862    3.2156    0.2262 H     1    ESP         0.0160
   1233 H           3.8136    0.4251    0.2262 H     1    ESP        -0.0057
   1234 H           3.9895    0.8693    0.2262 H     1    ESP         0.0009
   1235 H           4.0493    1.3433   -0.2367 H     1    ESP         0.0055
   1236 H           3.9895    1.8173   -0.2367 H     1    ESP         0.0086
   1237 H           3.8136    2.2616   -0.2367 H     1    ESP         0.0108
   1238 H           3.5328    2.6481   -0.2367 H     1    ESP         0.0123
   1239 H           3.1646    2.9526   -0.2367 H     1    ESP         0.0132
   1240 H           2.7323    3.1560   -0.2367 H     1    ESP         0.0138
   1241 H           2.2630    3.2456   -0.2367 H     1    ESP         0.0145
   1242 H           1.7862    3.2156   -0.2367 H     1    ESP         0.0160
   1243 H           3.8136    0.4251   -0.2367 H     1    ESP        -0.0057
   1244 H           3.9895    0.8693   -0.2367 H     1    ESP         0.0009
   1245 H           3.9386    1.3433   -0.6861 H     1    ESP         0.0049
   1246 H           3.8774    1.8080   -0.6861 H     1    ESP         0.0081
   1247 H           3.6981    2.2409   -0.6861 H     1    ESP         0.0102
   1248 H           3.4128    2.6127   -0.6861 H     1    ESP         0.0116
   1249 H           3.0410    2.8980   -0.6861 H     1    ESP         0.0124
   1250 H           2.6080    3.0774   -0.6861 H     1    ESP         0.0129
   1251 H           2.1433    3.1386   -0.6861 H     1    ESP         0.0134
   1252 H           1.6787    3.0774   -0.6861 H     1    ESP         0.0144
   1253 H           3.6981    0.4457   -0.6861 H     1    ESP        -0.0060
   1254 H           3.8774    0.8787   -0.6861 H     1    ESP         0.0005
   1255 H           3.7235    1.3433   -1.0959 H     1    ESP         0.0039
   1256 H           3.6533    1.8091   -1.0959 H     1    ESP         0.0071
   1257 H           3.4489    2.2334   -1.0959 H     1    ESP         0.0091
   1258 H           3.1285    2.5787   -1.0959 H     1    ESP         0.0103
   1259 H           2.7206    2.8142   -1.0959 H     1    ESP         0.0108
   1260 H           2.2614    2.9190   -1.0959 H     1    ESP         0.0108
   1261 H           1.7917    2.8838   -1.0959 H     1    ESP         0.0106
   1262 H           3.4489    0.4532   -1.0959 H     1    ESP        -0.0071
   1263 H           3.6533    0.8776   -1.0959 H     1    ESP        -0.0006
   1264 H           3.4165    1.3433   -1.4424 H     1    ESP         0.0025
   1265 H           3.3306    1.8033   -1.4424 H     1    ESP         0.0056
   1266 H           3.0842    2.2011   -1.4424 H     1    ESP         0.0073
   1267 H           2.7109    2.4830   -1.4424 H     1    ESP         0.0079
   1268 H           2.2608    2.6111   -1.4424 H     1    ESP         0.0076
   1269 H           3.3306    0.8834   -1.4424 H     1    ESP        -0.0021
   1270 H           3.0356    1.3433   -1.7053 H     1    ESP         0.0006
   1271 H           2.9161    1.7895   -1.7053 H     1    ESP         0.0034
   1272 H           2.5895    2.1161   -1.7053 H     1    ESP         0.0044
   1273 H           2.1433    2.2356   -1.7053 H     1    ESP         0.0034
   1274 H           2.3731    1.7413   -1.8695 H     1    ESP         0.0002
   1275 H          -0.2232   -2.6517    1.8558 H     1    ESP         0.0056
   1276 H          -0.7662   -2.6999    1.6917 H     1    ESP         0.0099
   1277 H          -0.4396   -3.0265    1.6917 H     1    ESP         0.0098
   1278 H           0.0065   -3.1461    1.6917 H     1    ESP         0.0080
   1279 H           0.4526   -3.0265    1.6917 H     1    ESP         0.0043
   1280 H          -1.2450   -2.4878    1.4288 H     1    ESP         0.0136
   1281 H          -1.0760   -2.9241    1.4288 H     1    ESP         0.0137
   1282 H          -0.7608   -3.2698    1.4288 H     1    ESP         0.0134
   1283 H          -0.3419   -3.4784    1.4288 H     1    ESP         0.0124
   1284 H           0.1240   -3.5216    1.4288 H     1    ESP         0.0102
   1285 H           0.5740   -3.3935    1.4288 H     1    ESP         0.0067
   1286 H           0.9474   -3.1116    1.4288 H     1    ESP         0.0016
   1287 H          -1.4171   -2.9394    1.0823 H     1    ESP         0.0169
   1288 H          -1.1518   -3.3286    1.0823 H     1    ESP         0.0164
   1289 H          -0.7836   -3.6222    1.0823 H     1    ESP         0.0157
   1290 H          -0.3451   -3.7943    1.0823 H     1    ESP         0.0145
   1291 H           0.1246   -3.8295    1.0823 H     1    ESP         0.0124
   1292 H           0.5838   -3.7247    1.0823 H     1    ESP         0.0093
   1293 H           0.9917   -3.4892    1.0823 H     1    ESP         0.0049
   1294 H           1.3121   -3.1439    1.0823 H     1    ESP        -0.0013
   1295 H          -1.5482   -3.1514    0.6725 H     1    ESP         0.0189
   1296 H          -1.2629   -3.5232    0.6725 H     1    ESP         0.0181
   1297 H          -0.8911   -3.8085    0.6725 H     1    ESP         0.0174
   1298 H          -0.4581   -3.9879    0.6725 H     1    ESP         0.0162
   1299 H           0.0065   -4.0490    0.6725 H     1    ESP         0.0145
   1300 H           0.4711   -3.9879    0.6725 H     1    ESP         0.0119
   1301 H           0.9041   -3.8085    0.6725 H     1    ESP         0.0083
   1302 H           1.2759   -3.5232    0.6725 H     1    ESP         0.0032
   1303 H           1.5612   -3.1514    0.6725 H     1    ESP        -0.0040
   1304 H          -1.7656   -2.9555    0.2231 H     1    ESP         0.0209
   1305 H          -1.5355   -3.3741    0.2231 H     1    ESP         0.0196
   1306 H          -1.2084   -3.7224    0.2231 H     1    ESP         0.0188
   1307 H          -0.8050   -3.9784    0.2231 H     1    ESP         0.0179
   1308 H          -0.3506   -4.1261    0.2231 H     1    ESP         0.0166
   1309 H           0.1262   -4.1561    0.2231 H     1    ESP         0.0147
   1310 H           0.5955   -4.0665    0.2231 H     1    ESP         0.0119
   1311 H           1.0278   -3.8631    0.2231 H     1    ESP         0.0080
   1312 H           1.3959   -3.5586    0.2231 H     1    ESP         0.0026
   1313 H           1.6767   -3.1720    0.2231 H     1    ESP        -0.0052
   1314 H          -1.7656   -2.9555   -0.2398 H     1    ESP         0.0209
   1315 H          -1.5355   -3.3741   -0.2398 H     1    ESP         0.0195
   1316 H          -1.2084   -3.7224   -0.2398 H     1    ESP         0.0188
   1317 H          -0.8050   -3.9784   -0.2398 H     1    ESP         0.0179
   1318 H          -0.3506   -4.1261   -0.2398 H     1    ESP         0.0166
   1319 H           0.1262   -4.1561   -0.2398 H     1    ESP         0.0147
   1320 H           0.5955   -4.0665   -0.2398 H     1    ESP         0.0119
   1321 H           1.0278   -3.8631   -0.2398 H     1    ESP         0.0080
   1322 H           1.3959   -3.5586   -0.2398 H     1    ESP         0.0026
   1323 H           1.6767   -3.1720   -0.2398 H     1    ESP        -0.0052
   1324 H          -1.5482   -3.1514   -0.6892 H     1    ESP         0.0189
   1325 H          -1.2629   -3.5232   -0.6892 H     1    ESP         0.0181
   1326 H          -0.8911   -3.8085   -0.6892 H     1    ESP         0.0174
   1327 H          -0.4581   -3.9879   -0.6892 H     1    ESP         0.0162
   1328 H           0.0065   -4.0490   -0.6892 H     1    ESP         0.0145
   1329 H           0.4711   -3.9879   -0.6892 H     1    ESP         0.0119
   1330 H           0.9041   -3.8085   -0.6892 H     1    ESP         0.0083
   1331 H           1.2759   -3.5232   -0.6892 H     1    ESP         0.0032
   1332 H           1.5612   -3.1514   -0.6892 H     1    ESP        -0.0040
   1333 H          -1.4171   -2.9394   -1.0990 H     1    ESP         0.0168
   1334 H          -1.1518   -3.3286   -1.0990 H     1    ESP         0.0164
   1335 H          -0.7836   -3.6222   -1.0990 H     1    ESP         0.0157
   1336 H          -0.3451   -3.7943   -1.0990 H     1    ESP         0.0145
   1337 H           0.1246   -3.8295   -1.0990 H     1    ESP         0.0124
   1338 H           0.5838   -3.7247   -1.0990 H     1    ESP         0.0094
   1339 H           0.9917   -3.4892   -1.0990 H     1    ESP         0.0049
   1340 H           1.3121   -3.1439   -1.0990 H     1    ESP        -0.0013
   1341 H          -1.2450   -2.4878   -1.4455 H     1    ESP         0.0134
   1342 H          -1.0760   -2.9241   -1.4455 H     1    ESP         0.0137
   1343 H          -0.7608   -3.2698   -1.4455 H     1    ESP         0.0134
   1344 H          -0.3419   -3.4784   -1.4455 H     1    ESP         0.0124
   1345 H           0.1240   -3.5216   -1.4455 H     1    ESP         0.0102
   1346 H           0.5740   -3.3935   -1.4455 H     1    ESP         0.0067
   1347 H           0.9474   -3.1116   -1.4455 H     1    ESP         0.0016
   1348 H          -0.7662   -2.6999   -1.7084 H     1    ESP         0.0099
   1349 H          -0.4396   -3.0265   -1.7084 H     1    ESP         0.0098
   1350 H           0.0065   -3.1461   -1.7084 H     1    ESP         0.0080
   1351 H           0.4526   -3.0265   -1.7084 H     1    ESP         0.0043
   1352 H          -0.2232   -2.6517   -1.8726 H     1    ESP         0.0056
   1353 H          -0.0292    1.2400    2.7041 H     1    ESP        -0.0076
   1354 H           0.4396    1.2400    2.6631 H     1    ESP        -0.0089
   1355 H           0.2052    1.6461    2.6631 H     1    ESP        -0.0065
   1356 H          -0.2637    1.6461    2.6631 H     1    ESP        -0.0052
   1357 H           0.7705    1.7017    2.5413 H     1    ESP        -0.0073
   1358 H           0.4325    2.0398    2.5413 H     1    ESP        -0.0047
   1359 H          -0.0292    2.1635    2.5413 H     1    ESP        -0.0027
   1360 H          -0.4910    2.0398    2.5413 H     1    ESP        -0.0020
   1361 H           1.0049    2.1078    2.3424 H     1    ESP        -0.0045
   1362 H           0.6458    2.4092    2.3424 H     1    ESP        -0.0020
   1363 H           0.2052    2.5695    2.3424 H     1    ESP         0.0000
   1364 H          -0.2637    2.5695    2.3424 H     1    ESP         0.0014
   1365 H          -0.7042    2.4092    2.3424 H     1    ESP         0.0017
   1366 H          -1.0634    2.1078    2.3424 H     1    ESP         0.0011
   1367 H           1.1554    2.5084    2.0724 H     1    ESP        -0.0004
   1368 H           0.7692    2.7810    2.0724 H     1    ESP         0.0018
   1369 H           0.3239    2.9392    2.0724 H     1    ESP         0.0038
   1370 H          -0.1477    2.9715    2.0724 H     1    ESP         0.0053
   1371 H          -0.6104    2.8753    2.0724 H     1    ESP         0.0061
   1372 H          -1.0301    2.6579    2.0724 H     1    ESP         0.0059
   1373 H          -1.3755    2.3353    2.0724 H     1    ESP         0.0049
   1374 H           1.2603    2.8571    1.7396 H     1    ESP         0.0041
   1375 H           0.8682    3.1035    1.7396 H     1    ESP         0.0059
   1376 H          -1.6463    2.5296    1.7396 H     1    ESP         0.0090
   1377 H           1.2698    3.1842    1.3541 H     1    ESP         0.0087
   1378 H           1.4997    3.2647    0.9276 H     1    ESP         0.0120
   1379 H           1.2698    3.1842   -1.3459 H     1    ESP         0.0086
   1380 H           1.2603    2.8571   -1.7314 H     1    ESP         0.0040
   1381 H           0.8682    3.1035   -1.7314 H     1    ESP         0.0058
   1382 H          -1.6463    2.5296   -1.7314 H     1    ESP         0.0087
   1383 H           1.1554    2.5084   -2.0642 H     1    ESP        -0.0005
   1384 H           0.7692    2.7810   -2.0642 H     1    ESP         0.0016
   1385 H           0.3239    2.9392   -2.0642 H     1    ESP         0.0036
   1386 H          -0.1477    2.9715   -2.0642 H     1    ESP         0.0051
   1387 H          -0.6104    2.8753   -2.0642 H     1    ESP         0.0058
   1388 H          -1.0301    2.6579   -2.0642 H     1    ESP         0.0056
   1389 H          -1.3755    2.3353   -2.0642 H     1    ESP         0.0046
   1390 H           1.0049    2.1078   -2.3342 H     1    ESP        -0.0046
   1391 H           0.6458    2.4092   -2.3342 H     1    ESP        -0.0021
   1392 H           0.2052    2.5695   -2.3342 H     1    ESP        -0.0001
   1393 H          -0.2637    2.5695   -2.3342 H     1    ESP         0.0011
   1394 H          -0.7042    2.4092   -2.3342 H     1    ESP         0.0015
   1395 H          -1.0634    2.1078   -2.3342 H     1    ESP         0.0008
   1396 H           0.7705    1.7017   -2.5331 H     1    ESP        -0.0074
   1397 H           0.4325    2.0398   -2.5331 H     1    ESP        -0.0048
   1398 H          -0.0292    2.1635   -2.5331 H     1    ESP        -0.0029
   1399 H          -0.4910    2.0398   -2.5331 H     1    ESP        -0.0023
   1400 H           0.4396    1.2400   -2.6549 H     1    ESP        -0.0090
   1401 H           0.2052    1.6461   -2.6549 H     1    ESP        -0.0067
   1402 H          -0.2637    1.6461   -2.6549 H     1    ESP        -0.0053
   1403 H          -0.0292    1.2400   -2.6959 H     1    ESP        -0.0077
   1404 H           1.2420    0.7411    2.6969 H     1    ESP        -0.0099
   1405 H           1.7109    0.7411    2.6559 H     1    ESP        -0.0094
   1406 H           1.4765    1.1472    2.6559 H     1    ESP        -0.0082
   1407 H           1.0076    1.1472    2.6559 H     1    ESP        -0.0092
   1408 H           0.7732    0.7411    2.6559 H     1    ESP        -0.0102
   1409 H           1.0076    0.3351    2.6559 H     1    ESP        -0.0108
   1410 H           1.4765    0.3351    2.6559 H     1    ESP        -0.0111
   1411 H           2.1655    0.7411    2.5340 H     1    ESP        -0.0088
   1412 H           2.0418    1.2028    2.5340 H     1    ESP        -0.0066
   1413 H           1.7038    1.5409    2.5340 H     1    ESP        -0.0059
   1414 H           1.2420    1.6646    2.5340 H     1    ESP        -0.0067
   1415 H           2.0418    0.2794    2.5340 H     1    ESP        -0.0117
   1416 H           2.5920    0.7411    2.3351 H     1    ESP        -0.0079
   1417 H           2.5106    1.2028    2.3351 H     1    ESP        -0.0050
   1418 H           2.2762    1.6089    2.3351 H     1    ESP        -0.0033
   1419 H           1.9170    1.9102    2.3351 H     1    ESP        -0.0029
   1420 H           1.4765    2.0706    2.3351 H     1    ESP        -0.0035
   1421 H           2.5106    0.2794    2.3351 H     1    ESP        -0.0117
   1422 H           2.9776    0.7411    2.0652 H     1    ESP        -0.0068
   1423 H           2.9132    1.2094    2.0652 H     1    ESP        -0.0031
   1424 H           2.7249    1.6429    2.0652 H     1    ESP        -0.0007
   1425 H           2.4266    2.0095    2.0652 H     1    ESP         0.0005
   1426 H           2.0405    2.2821    2.0652 H     1    ESP         0.0006
   1427 H           1.5951    2.4403    2.0652 H     1    ESP         0.0001
   1428 H           2.9132    0.2729    2.0652 H     1    ESP        -0.0115
   1429 H           3.3103    0.7411    1.7324 H     1    ESP        -0.0053
   1430 H           1.7023    2.7576    1.7324 H     1    ESP         0.0041
   1431 H           3.2585    0.2809    1.7324 H     1    ESP        -0.0109
   1432 H           1.6982    3.0345    1.3469 H     1    ESP         0.0081
   1433 H           3.5354    0.2849    1.3469 H     1    ESP        -0.0101
   1434 H           1.6982    3.0345   -1.3531 H     1    ESP         0.0080
   1435 H           3.5354    0.2849   -1.3531 H     1    ESP        -0.0102
   1436 H           3.3103    0.7411   -1.7387 H     1    ESP        -0.0054
   1437 H           1.7023    2.7576   -1.7387 H     1    ESP         0.0040
   1438 H           3.2585    0.2809   -1.7387 H     1    ESP        -0.0110
   1439 H           2.9776    0.7411   -2.0714 H     1    ESP        -0.0069
   1440 H           2.9132    1.2094   -2.0714 H     1    ESP        -0.0031
   1441 H           2.7249    1.6429   -2.0714 H     1    ESP        -0.0007
   1442 H           2.4266    2.0095   -2.0714 H     1    ESP         0.0005
   1443 H           2.0405    2.2821   -2.0714 H     1    ESP         0.0006
   1444 H           1.5951    2.4403   -2.0714 H     1    ESP         0.0001
   1445 H           2.9132    0.2729   -2.0714 H     1    ESP        -0.0116
   1446 H           2.5920    0.7411   -2.3414 H     1    ESP        -0.0080
   1447 H           2.5106    1.2028   -2.3414 H     1    ESP        -0.0050
   1448 H           2.2762    1.6089   -2.3414 H     1    ESP        -0.0034
   1449 H           1.9170    1.9102   -2.3414 H     1    ESP        -0.0029
   1450 H           1.4765    2.0706   -2.3414 H     1    ESP        -0.0035
   1451 H           2.5106    0.2794   -2.3414 H     1    ESP        -0.0118
   1452 H           2.1655    0.7411   -2.5403 H     1    ESP        -0.0089
   1453 H           2.0418    1.2028   -2.5403 H     1    ESP        -0.0066
   1454 H           1.7038    1.5409   -2.5403 H     1    ESP        -0.0059
   1455 H           1.2420    1.6646   -2.5403 H     1    ESP        -0.0067
   1456 H           2.0418    0.2794   -2.5403 H     1    ESP        -0.0118
   1457 H           1.7109    0.7411   -2.6621 H     1    ESP        -0.0095
   1458 H           1.4765    1.1472   -2.6621 H     1    ESP        -0.0083
   1459 H           1.0076    1.1472   -2.6621 H     1    ESP        -0.0092
   1460 H           0.7732    0.7411   -2.6621 H     1    ESP        -0.0102
   1461 H           1.0076    0.3351   -2.6621 H     1    ESP        -0.0109
   1462 H           1.4765    0.3351   -2.6621 H     1    ESP        -0.0112
   1463 H           1.2420    0.7411   -2.7031 H     1    ESP        -0.0099
   1464 H           1.3546   -0.6324    2.6912 H     1    ESP        -0.0131
   1465 H           1.8234   -0.6324    2.6501 H     1    ESP        -0.0146
   1466 H           1.5890   -0.2263    2.6501 H     1    ESP        -0.0131
   1467 H           1.1201   -0.2263    2.6501 H     1    ESP        -0.0119
   1468 H           0.8857   -0.6324    2.6501 H     1    ESP        -0.0116
   1469 H           1.1201   -1.0384    2.6501 H     1    ESP        -0.0127
   1470 H           1.5890   -1.0384    2.6501 H     1    ESP        -0.0145
   1471 H           2.2780   -0.6324    2.5283 H     1    ESP        -0.0160
   1472 H           2.1543   -0.1706    2.5283 H     1    ESP        -0.0140
   1473 H           1.3546   -1.5558    2.5283 H     1    ESP        -0.0137
   1474 H           1.8163   -1.4321    2.5283 H     1    ESP        -0.0159
   1475 H           2.1543   -1.0941    2.5283 H     1    ESP        -0.0169
   1476 H           2.7046   -0.6324    2.3294 H     1    ESP        -0.0172
   1477 H           2.6231   -0.1706    2.3294 H     1    ESP        -0.0148
   1478 H           1.5890   -1.9619    2.3294 H     1    ESP        -0.0145
   1479 H           2.0296   -1.8015    2.3294 H     1    ESP        -0.0172
   1480 H           2.3887   -1.5001    2.3294 H     1    ESP        -0.0187
   1481 H           2.6231   -1.0941    2.3294 H     1    ESP        -0.0187
   1482 H           3.0901   -0.6324    2.0595 H     1    ESP        -0.0183
   1483 H           3.0257   -0.1641    2.0595 H     1    ESP        -0.0152
   1484 H           1.7077   -2.3316    2.0595 H     1    ESP        -0.0142
   1485 H           2.1530   -2.1733    2.0595 H     1    ESP        -0.0177
   1486 H           2.5391   -1.9008    2.0595 H     1    ESP        -0.0201
   1487 H           2.8374   -1.5341    2.0595 H     1    ESP        -0.0210
   1488 H           3.0257   -1.1006    2.0595 H     1    ESP        -0.0203
   1489 H           3.4229   -0.6324    1.7267 H     1    ESP        -0.0191
   1490 H           3.3710   -0.1721    1.7267 H     1    ESP        -0.0155
   1491 H           1.8148   -2.6488    1.7267 H     1    ESP        -0.0135
   1492 H           2.2520   -2.4959    1.7267 H     1    ESP        -0.0178
   1493 H           2.6441   -2.2495    1.7267 H     1    ESP        -0.0209
   1494 H           2.9716   -1.9219    1.7267 H     1    ESP        -0.0226
   1495 H           3.2181   -1.5298    1.7267 H     1    ESP        -0.0229
   1496 H           3.3710   -1.0926    1.7267 H     1    ESP        -0.0217
   1497 H           3.6928   -0.6324    1.3412 H     1    ESP        -0.0198
   1498 H           3.6479   -0.1762    1.3412 H     1    ESP        -0.0156
   1499 H           1.8107   -2.9257    1.3412 H     1    ESP        -0.0113
   1500 H           2.2494   -2.7927    1.3412 H     1    ESP        -0.0166
   1501 H           2.6536   -2.5766    1.3412 H     1    ESP        -0.0207
   1502 H           3.0080   -2.2858    1.3412 H     1    ESP        -0.0234
   1503 H           3.2988   -1.9314    1.3412 H     1    ESP        -0.0246
   1504 H           3.5148   -1.5272    1.3412 H     1    ESP        -0.0244
   1505 H           3.6479   -1.0885    1.3412 H     1    ESP        -0.0228
   1506 H           3.8917   -0.6324    0.9146 H     1    ESP        -0.0203
   1507 H           3.8485   -0.1662    0.9146 H     1    ESP        -0.0155
   1508 H           2.0489   -3.0727    0.9146 H     1    ESP        -0.0127
   1509 H           2.4855   -2.9036    0.9146 H     1    ESP        -0.0183
   1510 H           2.8835   -2.6571    0.9146 H     1    ESP        -0.0224
   1511 H           3.2296   -2.3417    0.9146 H     1    ESP        -0.0250
   1512 H           3.5117   -1.9680    0.9146 H     1    ESP        -0.0260
   1513 H           3.7204   -1.5489    0.9146 H     1    ESP        -0.0256
   1514 H           3.8485   -1.0986    0.9146 H     1    ESP        -0.0236
   1515 H           4.0135   -0.6324    0.4600 H     1    ESP        -0.0205
   1516 H           3.9731   -0.1706    0.4600 H     1    ESP        -0.0155
   1517 H           2.2640   -3.1310    0.4600 H     1    ESP        -0.0146
   1518 H           2.6841   -2.9351    0.4600 H     1    ESP        -0.0200
   1519 H           3.0637   -2.6693    0.4600 H     1    ESP        -0.0238
   1520 H           3.3915   -2.3415    0.4600 H     1    ESP        -0.0261
   1521 H           3.6573   -1.9619    0.4600 H     1    ESP        -0.0269
   1522 H           3.8532   -1.5418    0.4600 H     1    ESP        -0.0262
   1523 H           3.9731   -1.0941    0.4600 H     1    ESP        -0.0241
   1524 H           4.0546   -0.6324   -0.0088 H     1    ESP        -0.0206
   1525 H           4.0157   -0.1761   -0.0088 H     1    ESP        -0.0156
   1526 H           1.9234   -3.2718   -0.0088 H     1    ESP        -0.0087
   1527 H           2.3613   -3.1377   -0.0088 H     1    ESP        -0.0157
   1528 H           2.7702   -2.9315   -0.0088 H     1    ESP        -0.0208
   1529 H           3.1384   -2.6592   -0.0088 H     1    ESP        -0.0245
   1530 H           3.4553   -2.3286   -0.0088 H     1    ESP        -0.0266
   1531 H           3.7117   -1.9491   -0.0088 H     1    ESP        -0.0272
   1532 H           3.9003   -1.5319   -0.0088 H     1    ESP        -0.0264
   1533 H           4.0157   -1.0887   -0.0088 H     1    ESP        -0.0242
   1534 H           4.0135   -0.6324   -0.4777 H     1    ESP        -0.0206
   1535 H           3.9731   -0.1706   -0.4777 H     1    ESP        -0.0156
   1536 H           2.2640   -3.1310   -0.4777 H     1    ESP        -0.0147
   1537 H           2.6841   -2.9351   -0.4777 H     1    ESP        -0.0201
   1538 H           3.0637   -2.6693   -0.4777 H     1    ESP        -0.0239
   1539 H           3.3915   -2.3415   -0.4777 H     1    ESP        -0.0262
   1540 H           3.6573   -1.9619   -0.4777 H     1    ESP        -0.0269
   1541 H           3.8532   -1.5418   -0.4777 H     1    ESP        -0.0263
   1542 H           3.9731   -1.0941   -0.4777 H     1    ESP        -0.0241
   1543 H           3.8917   -0.6324   -0.9323 H     1    ESP        -0.0203
   1544 H           3.8485   -0.1662   -0.9323 H     1    ESP        -0.0156
   1545 H           2.0489   -3.0727   -0.9323 H     1    ESP        -0.0127
   1546 H           2.4855   -2.9036   -0.9323 H     1    ESP        -0.0184
   1547 H           2.8835   -2.6571   -0.9323 H     1    ESP        -0.0225
   1548 H           3.2296   -2.3417   -0.9323 H     1    ESP        -0.0250
   1549 H           3.5117   -1.9680   -0.9323 H     1    ESP        -0.0261
   1550 H           3.7204   -1.5489   -0.9323 H     1    ESP        -0.0256
   1551 H           3.8485   -1.0986   -0.9323 H     1    ESP        -0.0237
   1552 H           3.6928   -0.6324   -1.3588 H     1    ESP        -0.0199
   1553 H           3.6479   -0.1762   -1.3588 H     1    ESP        -0.0158
   1554 H           1.8107   -2.9257   -1.3588 H     1    ESP        -0.0114
   1555 H           2.2494   -2.7927   -1.3588 H     1    ESP        -0.0167
   1556 H           2.6536   -2.5766   -1.3588 H     1    ESP        -0.0208
   1557 H           3.0080   -2.2858   -1.3588 H     1    ESP        -0.0235
   1558 H           3.2988   -1.9314   -1.3588 H     1    ESP        -0.0247
   1559 H           3.5148   -1.5272   -1.3588 H     1    ESP        -0.0245
   1560 H           3.6479   -1.0885   -1.3588 H     1    ESP        -0.0229
   1561 H           3.4229   -0.6324   -1.7444 H     1    ESP        -0.0193
   1562 H           3.3710   -0.1721   -1.7444 H     1    ESP        -0.0156
   1563 H           1.8148   -2.6488   -1.7444 H     1    ESP        -0.0136
   1564 H           2.2520   -2.4959   -1.7444 H     1    ESP        -0.0178
   1565 H           2.6441   -2.2495   -1.7444 H     1    ESP        -0.0210
   1566 H           2.9716   -1.9219   -1.7444 H     1    ESP        -0.0227
   1567 H           3.2181   -1.5298   -1.7444 H     1    ESP        -0.0230
   1568 H           3.3710   -1.0926   -1.7444 H     1    ESP        -0.0218
   1569 H           3.0901   -0.6324   -2.0772 H     1    ESP        -0.0184
   1570 H           3.0257   -0.1641   -2.0772 H     1    ESP        -0.0153
   1571 H           1.7077   -2.3316   -2.0772 H     1    ESP        -0.0143
   1572 H           2.1530   -2.1733   -2.0772 H     1    ESP        -0.0178
   1573 H           2.5391   -1.9008   -2.0772 H     1    ESP        -0.0202
   1574 H           2.8374   -1.5341   -2.0772 H     1    ESP        -0.0211
   1575 H           3.0257   -1.1006   -2.0772 H     1    ESP        -0.0205
   1576 H           2.7046   -0.6324   -2.3471 H     1    ESP        -0.0174
   1577 H           2.6231   -0.1706   -2.3471 H     1    ESP        -0.0149
   1578 H           1.5890   -1.9619   -2.3471 H     1    ESP        -0.0146
   1579 H           2.0296   -1.8015   -2.3471 H     1    ESP        -0.0173
   1580 H           2.3887   -1.5001   -2.3471 H     1    ESP        -0.0189
   1581 H           2.6231   -1.0941   -2.3471 H     1    ESP        -0.0189
   1582 H           2.2780   -0.6324   -2.5460 H     1    ESP        -0.0161
   1583 H           2.1543   -0.1706   -2.5460 H     1    ESP        -0.0142
   1584 H           1.3546   -1.5558   -2.5460 H     1    ESP        -0.0139
   1585 H           1.8163   -1.4321   -2.5460 H     1    ESP        -0.0161
   1586 H           2.1543   -1.0941   -2.5460 H     1    ESP        -0.0170
   1587 H           1.8234   -0.6324   -2.6678 H     1    ESP        -0.0147
   1588 H           1.5890   -0.2263   -2.6678 H     1    ESP        -0.0132
   1589 H           1.1201   -0.2263   -2.6678 H     1    ESP        -0.0120
   1590 H           0.8857   -0.6324   -2.6678 H     1    ESP        -0.0117
   1591 H           1.1201   -1.0384   -2.6678 H     1    ESP        -0.0128
   1592 H           1.5890   -1.0384   -2.6678 H     1    ESP        -0.0147
   1593 H           1.3546   -0.6324   -2.7088 H     1    ESP        -0.0133
   1594 H           0.1769   -1.1831    2.6948 H     1    ESP        -0.0078
   1595 H           0.6457   -1.1831    2.6537 H     1    ESP        -0.0102
   1596 H           0.4113   -0.7771    2.6537 H     1    ESP        -0.0095
   1597 H          -0.0576   -1.5892    2.6537 H     1    ESP        -0.0055
   1598 H           0.4113   -1.5892    2.6537 H     1    ESP        -0.0077
   1599 H          -0.2849   -1.9829    2.5319 H     1    ESP        -0.0025
   1600 H           0.1769   -2.1066    2.5319 H     1    ESP        -0.0041
   1601 H           0.6386   -1.9829    2.5319 H     1    ESP        -0.0075
   1602 H           0.9766   -1.6449    2.5319 H     1    ESP        -0.0113
   1603 H          -0.4981   -2.3523    2.3330 H     1    ESP         0.0010
   1604 H          -0.0576   -2.5126    2.3330 H     1    ESP        -0.0001
   1605 H           0.4113   -2.5126    2.3330 H     1    ESP        -0.0028
   1606 H           0.8519   -2.3523    2.3330 H     1    ESP        -0.0068
   1607 H           1.2110   -2.0509    2.3330 H     1    ESP        -0.0115
   1608 H          -0.8240   -2.6010    2.0631 H     1    ESP         0.0052
   1609 H          -0.4043   -2.8185    2.0631 H     1    ESP         0.0047
   1610 H           0.0584   -2.9146    2.0631 H     1    ESP         0.0029
   1611 H           0.5300   -2.8824    2.0631 H     1    ESP        -0.0004
   1612 H           0.9753   -2.7241    2.0631 H     1    ESP        -0.0050
   1613 H           1.3614   -2.4515    2.0631 H     1    ESP        -0.0105
   1614 H           1.0743   -3.0466    1.7303 H     1    ESP        -0.0025
   1615 H           1.4664   -2.8002    1.7303 H     1    ESP        -0.0087
   1616 H           1.4759   -3.1273    1.3448 H     1    ESP        -0.0052
   1617 H           1.4759   -3.1273   -1.3552 H     1    ESP        -0.0052
   1618 H           1.0743   -3.0466   -1.7408 H     1    ESP        -0.0025
   1619 H           1.4664   -2.8002   -1.7408 H     1    ESP        -0.0087
   1620 H          -0.8240   -2.6010   -2.0736 H     1    ESP         0.0052
   1621 H          -0.4043   -2.8185   -2.0736 H     1    ESP         0.0047
   1622 H           0.0584   -2.9146   -2.0736 H     1    ESP         0.0030
   1623 H           0.5300   -2.8824   -2.0736 H     1    ESP        -0.0003
   1624 H           0.9753   -2.7241   -2.0736 H     1    ESP        -0.0050
   1625 H           1.3614   -2.4515   -2.0736 H     1    ESP        -0.0106
   1626 H          -0.4981   -2.3523   -2.3435 H     1    ESP         0.0010
   1627 H          -0.0576   -2.5126   -2.3435 H     1    ESP        -0.0001
   1628 H           0.4113   -2.5126   -2.3435 H     1    ESP        -0.0028
   1629 H           0.8519   -2.3523   -2.3435 H     1    ESP        -0.0069
   1630 H           1.2110   -2.0509   -2.3435 H     1    ESP        -0.0117
   1631 H          -0.2849   -1.9829   -2.5424 H     1    ESP        -0.0025
   1632 H           0.1769   -2.1066   -2.5424 H     1    ESP        -0.0042
   1633 H           0.6386   -1.9829   -2.5424 H     1    ESP        -0.0075
   1634 H           0.9766   -1.6449   -2.5424 H     1    ESP        -0.0114
   1635 H           0.6457   -1.1831   -2.6642 H     1    ESP        -0.0103
   1636 H           0.4113   -0.7771   -2.6642 H     1    ESP        -0.0096
   1637 H          -0.0576   -1.5892   -2.6642 H     1    ESP        -0.0055
   1638 H           0.4113   -1.5892   -2.6642 H     1    ESP        -0.0078
   1639 H           0.1769   -1.1831   -2.7052 H     1    ESP        -0.0079
   1640 H          -1.1716   -0.0655    3.1556 H     1    ESP        -0.0052
   1641 H          -0.7233   -0.0655    3.1236 H     1    ESP        -0.0060
   1642 H          -0.9475    0.3227    3.1236 H     1    ESP        -0.0055
   1643 H          -1.3958    0.3227    3.1236 H     1    ESP        -0.0046
   1644 H          -1.6199   -0.0655    3.1236 H     1    ESP        -0.0044
   1645 H          -1.3958   -0.4537    3.1236 H     1    ESP        -0.0046
   1646 H          -0.9475   -0.4537    3.1236 H     1    ESP        -0.0054
   1647 H          -0.2842   -0.0655    3.0280 H     1    ESP        -0.0070
   1648 H          -0.4030    0.3782    3.0280 H     1    ESP        -0.0067
   1649 H          -0.7279    0.7031    3.0280 H     1    ESP        -0.0057
   1650 H          -1.1716    0.8220    3.0280 H     1    ESP        -0.0044
   1651 H          -1.6153    0.7031    3.0280 H     1    ESP        -0.0037
   1652 H          -1.9402    0.3782    3.0280 H     1    ESP        -0.0036
   1653 H          -2.0591   -0.0655    3.0280 H     1    ESP        -0.0036
   1654 H          -1.9402   -0.5092    3.0280 H     1    ESP        -0.0036
   1655 H          -1.6153   -0.8341    3.0280 H     1    ESP        -0.0036
   1656 H          -1.1716   -0.9530    3.0280 H     1    ESP        -0.0041
   1657 H          -0.7279   -0.8341    3.0280 H     1    ESP        -0.0053
   1658 H          -0.4030   -0.5092    3.0280 H     1    ESP        -0.0065
   1659 H           0.1369   -0.0655    2.8710 H     1    ESP        -0.0082
   1660 H           0.0580    0.3821    2.8710 H     1    ESP        -0.0081
   1661 H          -0.1692    0.7756    2.8710 H     1    ESP        -0.0074
   1662 H          -0.5173    1.0678    2.8710 H     1    ESP        -0.0059
   1663 H          -0.9444    1.2232    2.8710 H     1    ESP        -0.0041
   1664 H          -1.3988    1.2232    2.8710 H     1    ESP        -0.0028
   1665 H          -1.8259    1.0678    2.8710 H     1    ESP        -0.0023
   1666 H          -2.1740    0.7756    2.8710 H     1    ESP        -0.0024
   1667 H          -2.4013    0.3821    2.8710 H     1    ESP        -0.0027
   1668 H          -2.4802   -0.0655    2.8710 H     1    ESP        -0.0029
   1669 H          -2.4013   -0.5130    2.8710 H     1    ESP        -0.0028
   1670 H          -2.1740   -0.9066    2.8710 H     1    ESP        -0.0025
   1671 H          -1.8259   -1.1987    2.8710 H     1    ESP        -0.0023
   1672 H          -1.3988   -1.3542    2.8710 H     1    ESP        -0.0025
   1673 H          -0.9444   -1.3542    2.8710 H     1    ESP        -0.0034
   1674 H          -0.5173   -1.1987    2.8710 H     1    ESP        -0.0051
   1675 H          -0.1692   -0.9066    2.8710 H     1    ESP        -0.0068
   1676 H           0.0580   -0.5130    2.8710 H     1    ESP        -0.0079
   1677 H           0.5314   -0.0655    2.6556 H     1    ESP        -0.0099
   1678 H           0.4683    0.3940    2.6556 H     1    ESP        -0.0098
   1679 H           0.2835    0.8194    2.6556 H     1    ESP        -0.0095
   1680 H          -0.8251    1.6019    2.6556 H     1    ESP        -0.0032
   1681 H          -1.2878    1.6336    2.6556 H     1    ESP        -0.0014
   1682 H          -1.7419    1.5392    2.6556 H     1    ESP        -0.0005
   1683 H          -2.1537    1.3258    2.6556 H     1    ESP        -0.0005
   1684 H          -2.4927    1.0093    2.6556 H     1    ESP        -0.0010
   1685 H          -2.7336    0.6130    2.6556 H     1    ESP        -0.0016
   1686 H          -2.8588    0.1664    2.6556 H     1    ESP        -0.0020
   1687 H          -2.8588   -0.2974    2.6556 H     1    ESP        -0.0021
   1688 H          -2.7336   -0.7440    2.6556 H     1    ESP        -0.0018
   1689 H          -2.4927   -1.1402    2.6556 H     1    ESP        -0.0012
   1690 H          -2.1537   -1.4568    2.6556 H     1    ESP        -0.0007
   1691 H          -1.7419   -1.6702    2.6556 H     1    ESP        -0.0004
   1692 H          -1.2878   -1.7645    2.6556 H     1    ESP        -0.0007
   1693 H          -0.8251   -1.7329    2.6556 H     1    ESP        -0.0020
   1694 H          -0.3881   -1.5776    2.6556 H     1    ESP        -0.0042
   1695 H           0.4683   -0.5250    2.6556 H     1    ESP        -0.0098
   1696 H          -1.1716    1.9973    2.3862 H     1    ESP         0.0007
   1697 H          -1.6306    1.9456    2.3862 H     1    ESP         0.0018
   1698 H          -2.0666    1.7930    2.3862 H     1    ESP         0.0019
   1699 H          -2.4578    1.5473    2.3862 H     1    ESP         0.0014
   1700 H          -2.7844    1.2206    2.3862 H     1    ESP         0.0005
   1701 H          -3.0301    0.8295    2.3862 H     1    ESP        -0.0003
   1702 H          -3.1827    0.3935    2.3862 H     1    ESP        -0.0010
   1703 H          -3.2344   -0.0655    2.3862 H     1    ESP        -0.0013
   1704 H          -3.1827   -0.5245    2.3862 H     1    ESP        -0.0012
   1705 H          -3.0301   -0.9605    2.3862 H     1    ESP        -0.0007
   1706 H          -2.7844   -1.3516    2.3862 H     1    ESP         0.0001
   1707 H          -2.4578   -1.6783    2.3862 H     1    ESP         0.0010
   1708 H          -2.0666   -1.9240    2.3862 H     1    ESP         0.0018
   1709 H          -1.6306   -2.0766    2.3862 H     1    ESP         0.0021
   1710 H          -1.1716   -2.1283    2.3862 H     1    ESP         0.0017
   1711 H          -0.7126   -2.0766    2.3862 H     1    ESP         0.0002
   1712 H          -1.5104    2.2909    2.0684 H     1    ESP         0.0050
   1713 H          -1.9502    2.1842    2.0684 H     1    ESP         0.0050
   1714 H          -2.3619    1.9962    2.0684 H     1    ESP         0.0043
   1715 H          -2.7306    1.7337    2.0684 H     1    ESP         0.0032
   1716 H          -3.0429    1.4061    2.0684 H     1    ESP         0.0021
   1717 H          -3.2876    1.0254    2.0684 H     1    ESP         0.0010
   1718 H          -3.4558    0.6052    2.0684 H     1    ESP         0.0001
   1719 H          -3.5414    0.1608    2.0684 H     1    ESP        -0.0005
   1720 H          -3.5414   -0.2918    2.0684 H     1    ESP        -0.0006
   1721 H          -3.4558   -0.7362    2.0684 H     1    ESP        -0.0003
   1722 H          -3.2876   -1.1564    2.0684 H     1    ESP         0.0004
   1723 H          -3.0429   -1.5371    2.0684 H     1    ESP         0.0014
   1724 H          -2.7306   -1.8646    2.0684 H     1    ESP         0.0026
   1725 H          -2.3619   -2.1272    2.0684 H     1    ESP         0.0038
   1726 H          -1.9502   -2.3152    2.0684 H     1    ESP         0.0047
   1727 H          -1.5104   -2.4219    2.0684 H     1    ESP         0.0052
   1728 H          -1.0583   -2.4434    2.0684 H     1    ESP         0.0050
   1729 H          -1.9476    2.4683    1.7086 H     1    ESP         0.0087
   1730 H          -2.3646    2.3007    1.7086 H     1    ESP         0.0073
   1731 H          -2.7474    2.0651    1.7086 H     1    ESP         0.0059
   1732 H          -3.0848    1.7681    1.7086 H     1    ESP         0.0044
   1733 H          -3.3671    1.4184    1.7086 H     1    ESP         0.0030
   1734 H          -3.5863    1.0260    1.7086 H     1    ESP         0.0017
   1735 H          -3.7361    0.6022    1.7086 H     1    ESP         0.0008
   1736 H          -3.8120    0.1592    1.7086 H     1    ESP         0.0002
   1737 H          -3.8120   -0.2902    1.7086 H     1    ESP         0.0001
   1738 H          -3.7361   -0.7332    1.7086 H     1    ESP         0.0004
   1739 H          -3.5863   -1.1570    1.7086 H     1    ESP         0.0011
   1740 H          -3.3671   -1.5494    1.7086 H     1    ESP         0.0022
   1741 H          -3.0848   -1.8991    1.7086 H     1    ESP         0.0035
   1742 H          -2.7474   -2.1960    1.7086 H     1    ESP         0.0050
   1743 H          -2.3646   -2.4317    1.7086 H     1    ESP         0.0065
   1744 H          -1.9476   -2.5993    1.7086 H     1    ESP         0.0079
   1745 H          -1.5082   -2.6940    1.7086 H     1    ESP         0.0091
   1746 H          -2.0570    2.6596    1.3142 H     1    ESP         0.0123
   1747 H          -2.4724    2.4875    1.3142 H     1    ESP         0.0100
   1748 H          -2.8558    2.2526    1.3142 H     1    ESP         0.0080
   1749 H          -3.1977    1.9606    1.3142 H     1    ESP         0.0061
   1750 H          -3.4897    1.6187    1.3142 H     1    ESP         0.0045
   1751 H          -3.7246    1.2353    1.3142 H     1    ESP         0.0030
   1752 H          -3.8967    0.8199    1.3142 H     1    ESP         0.0019
   1753 H          -4.0017    0.3827    1.3142 H     1    ESP         0.0011
   1754 H          -4.0369   -0.0655    1.3142 H     1    ESP         0.0007
   1755 H          -4.0017   -0.5137    1.3142 H     1    ESP         0.0008
   1756 H          -3.8967   -0.9509    1.3142 H     1    ESP         0.0013
   1757 H          -3.7246   -1.3663    1.3142 H     1    ESP         0.0023
   1758 H          -3.4897   -1.7497    1.3142 H     1    ESP         0.0035
   1759 H          -3.1977   -2.0916    1.3142 H     1    ESP         0.0051
   1760 H          -2.8558   -2.3836    1.3142 H     1    ESP         0.0068
   1761 H          -2.4724   -2.6185    1.3142 H     1    ESP         0.0087
   1762 H          -2.0570   -2.7906    1.3142 H     1    ESP         0.0106
   1763 H          -1.6198   -2.8956    1.3142 H     1    ESP         0.0128
   1764 H          -2.2758    2.7480    0.8931 H     1    ESP         0.0144
   1765 H          -2.6828    2.5520    0.8931 H     1    ESP         0.0114
   1766 H          -3.0560    2.2975    0.8931 H     1    ESP         0.0090
   1767 H          -3.3872    1.9903    0.8931 H     1    ESP         0.0069
   1768 H          -3.6688    1.6371    0.8931 H     1    ESP         0.0051
   1769 H          -3.8947    1.2459    0.8931 H     1    ESP         0.0035
   1770 H          -4.0597    0.8254    0.8931 H     1    ESP         0.0023
   1771 H          -4.1603    0.3850    0.8931 H     1    ESP         0.0015
   1772 H          -4.1940   -0.0655    0.8931 H     1    ESP         0.0011
   1773 H          -4.1603   -0.5160    0.8931 H     1    ESP         0.0012
   1774 H          -4.0597   -0.9564    0.8931 H     1    ESP         0.0018
   1775 H          -3.8947   -1.3769    0.8931 H     1    ESP         0.0027
   1776 H          -3.6688   -1.7681    0.8931 H     1    ESP         0.0041
   1777 H          -3.3872   -2.1212    0.8931 H     1    ESP         0.0057
   1778 H          -3.0560   -2.4285    0.8931 H     1    ESP         0.0076
   1779 H          -2.6828   -2.6830    0.8931 H     1    ESP         0.0097
   1780 H          -2.2758   -2.8790    0.8931 H     1    ESP         0.0121
   1781 H          -1.8442   -3.0121    0.8931 H     1    ESP         0.0149
   1782 H          -2.5973    2.7074    0.4539 H     1    ESP         0.0139
   1783 H          -2.9858    2.4703    0.4539 H     1    ESP         0.0109
   1784 H          -3.3357    2.1791    0.4539 H     1    ESP         0.0085
   1785 H          -3.6394    1.8401    0.4539 H     1    ESP         0.0064
   1786 H          -3.8906    1.4605    0.4539 H     1    ESP         0.0046
   1787 H          -4.0838    1.0483    0.4539 H     1    ESP         0.0032
   1788 H          -4.2150    0.6124    0.4539 H     1    ESP         0.0022
   1789 H          -4.2812    0.1621    0.4539 H     1    ESP         0.0016
   1790 H          -4.2812   -0.2931    0.4539 H     1    ESP         0.0014
   1791 H          -4.2150   -0.7434    0.4539 H     1    ESP         0.0017
   1792 H          -4.0838   -1.1793    0.4539 H     1    ESP         0.0025
   1793 H          -3.8906   -1.5915    0.4539 H     1    ESP         0.0037
   1794 H          -3.6394   -1.9711    0.4539 H     1    ESP         0.0052
   1795 H          -3.3357   -2.3101    0.4539 H     1    ESP         0.0071
   1796 H          -2.9858   -2.6013    0.4539 H     1    ESP         0.0092
   1797 H          -2.5973   -2.8384    0.4539 H     1    ESP         0.0116
   1798 H          -2.1783   -3.0164    0.4539 H     1    ESP         0.0145
   1799 H          -2.4802    2.7998    0.0056 H     1    ESP         0.0157
   1800 H          -2.8746    2.5845    0.0056 H     1    ESP         0.0122
   1801 H          -3.2344    2.3151    0.0056 H     1    ESP         0.0096
   1802 H          -3.5522    1.9973    0.0056 H     1    ESP         0.0074
   1803 H          -3.8216    1.6375    0.0056 H     1    ESP         0.0055
   1804 H          -4.0369    1.2431    0.0056 H     1    ESP         0.0039
   1805 H          -4.1940    0.8220    0.0056 H     1    ESP         0.0027
   1806 H          -4.2895    0.3828    0.0056 H     1    ESP         0.0019
   1807 H          -4.3216   -0.0655    0.0056 H     1    ESP         0.0015
   1808 H          -4.2895   -0.5138    0.0056 H     1    ESP         0.0016
   1809 H          -4.1940   -0.9530    0.0056 H     1    ESP         0.0021
   1810 H          -4.0369   -1.3741    0.0056 H     1    ESP         0.0031
   1811 H          -3.8216   -1.7685    0.0056 H     1    ESP         0.0045
   1812 H          -3.5522   -2.1283    0.0056 H     1    ESP         0.0061
   1813 H          -3.2344   -2.4461    0.0056 H     1    ESP         0.0081
   1814 H          -2.8746   -2.7154    0.0056 H     1    ESP         0.0103
   1815 H          -2.4802   -2.9308    0.0056 H     1    ESP         0.0130
   1816 H          -2.0591   -3.0879    0.0056 H     1    ESP         0.0163
   1817 H          -2.5973    2.7074   -0.4427 H     1    ESP         0.0138
   1818 H          -2.9858    2.4703   -0.4427 H     1    ESP         0.0108
   1819 H          -3.3357    2.1791   -0.4427 H     1    ESP         0.0084
   1820 H          -3.6394    1.8401   -0.4427 H     1    ESP         0.0064
   1821 H          -3.8906    1.4605   -0.4427 H     1    ESP         0.0046
   1822 H          -4.0838    1.0483   -0.4427 H     1    ESP         0.0032
   1823 H          -4.2150    0.6124   -0.4427 H     1    ESP         0.0021
   1824 H          -4.2812    0.1621   -0.4427 H     1    ESP         0.0015
   1825 H          -4.2812   -0.2931   -0.4427 H     1    ESP         0.0014
   1826 H          -4.2150   -0.7434   -0.4427 H     1    ESP         0.0017
   1827 H          -4.0838   -1.1793   -0.4427 H     1    ESP         0.0025
   1828 H          -3.8906   -1.5915   -0.4427 H     1    ESP         0.0037
   1829 H          -3.6394   -1.9711   -0.4427 H     1    ESP         0.0052
   1830 H          -3.3357   -2.3101   -0.4427 H     1    ESP         0.0071
   1831 H          -2.9858   -2.6013   -0.4427 H     1    ESP         0.0092
   1832 H          -2.5973   -2.8384   -0.4427 H     1    ESP         0.0117
   1833 H          -2.1783   -3.0164   -0.4427 H     1    ESP         0.0146
   1834 H          -2.2758    2.7480   -0.8818 H     1    ESP         0.0143
   1835 H          -2.6828    2.5520   -0.8818 H     1    ESP         0.0113
   1836 H          -3.0560    2.2975   -0.8818 H     1    ESP         0.0089
   1837 H          -3.3872    1.9903   -0.8818 H     1    ESP         0.0068
   1838 H          -3.6688    1.6371   -0.8818 H     1    ESP         0.0050
   1839 H          -3.8947    1.2459   -0.8818 H     1    ESP         0.0035
   1840 H          -4.0597    0.8254   -0.8818 H     1    ESP         0.0023
   1841 H          -4.1603    0.3850   -0.8818 H     1    ESP         0.0015
   1842 H          -4.1940   -0.0655   -0.8818 H     1    ESP         0.0011
   1843 H          -4.1603   -0.5160   -0.8818 H     1    ESP         0.0012
   1844 H          -4.0597   -0.9564   -0.8818 H     1    ESP         0.0018
   1845 H          -3.8947   -1.3769   -0.8818 H     1    ESP         0.0027
   1846 H          -3.6688   -1.7681   -0.8818 H     1    ESP         0.0041
   1847 H          -3.3872   -2.1212   -0.8818 H     1    ESP         0.0057
   1848 H          -3.0560   -2.4285   -0.8818 H     1    ESP         0.0076
   1849 H          -2.6828   -2.6830   -0.8818 H     1    ESP         0.0097
   1850 H          -2.2758   -2.8790   -0.8818 H     1    ESP         0.0122
   1851 H          -1.8442   -3.0121   -0.8818 H     1    ESP         0.0151
   1852 H          -2.0570    2.6596   -1.3029 H     1    ESP         0.0121
   1853 H          -2.4724    2.4875   -1.3029 H     1    ESP         0.0099
   1854 H          -2.8558    2.2526   -1.3029 H     1    ESP         0.0079
   1855 H          -3.1977    1.9606   -1.3029 H     1    ESP         0.0060
   1856 H          -3.4897    1.6187   -1.3029 H     1    ESP         0.0044
   1857 H          -3.7246    1.2353   -1.3029 H     1    ESP         0.0029
   1858 H          -3.8967    0.8199   -1.3029 H     1    ESP         0.0018
   1859 H          -4.0017    0.3827   -1.3029 H     1    ESP         0.0010
   1860 H          -4.0369   -0.0655   -1.3029 H     1    ESP         0.0007
   1861 H          -4.0017   -0.5137   -1.3029 H     1    ESP         0.0008
   1862 H          -3.8967   -0.9509   -1.3029 H     1    ESP         0.0013
   1863 H          -3.7246   -1.3663   -1.3029 H     1    ESP         0.0023
   1864 H          -3.4897   -1.7497   -1.3029 H     1    ESP         0.0035
   1865 H          -3.1977   -2.0916   -1.3029 H     1    ESP         0.0051
   1866 H          -2.8558   -2.3836   -1.3029 H     1    ESP         0.0069
   1867 H          -2.4724   -2.6185   -1.3029 H     1    ESP         0.0088
   1868 H          -2.0570   -2.7906   -1.3029 H     1    ESP         0.0108
   1869 H          -1.6198   -2.8956   -1.3029 H     1    ESP         0.0130
   1870 H          -1.9476    2.4683   -1.6974 H     1    ESP         0.0084
   1871 H          -2.3646    2.3007   -1.6974 H     1    ESP         0.0072
   1872 H          -2.7474    2.0651   -1.6974 H     1    ESP         0.0057
   1873 H          -3.0848    1.7681   -1.6974 H     1    ESP         0.0042
   1874 H          -3.3671    1.4184   -1.6974 H     1    ESP         0.0028
   1875 H          -3.5863    1.0260   -1.6974 H     1    ESP         0.0016
   1876 H          -3.7361    0.6022   -1.6974 H     1    ESP         0.0007
   1877 H          -3.8120    0.1592   -1.6974 H     1    ESP         0.0002
   1878 H          -3.8120   -0.2902   -1.6974 H     1    ESP         0.0001
   1879 H          -3.7361   -0.7332   -1.6974 H     1    ESP         0.0004
   1880 H          -3.5863   -1.1570   -1.6974 H     1    ESP         0.0011
   1881 H          -3.3671   -1.5494   -1.6974 H     1    ESP         0.0022
   1882 H          -3.0848   -1.8991   -1.6974 H     1    ESP         0.0036
   1883 H          -2.7474   -2.1960   -1.6974 H     1    ESP         0.0050
   1884 H          -2.3646   -2.4317   -1.6974 H     1    ESP         0.0066
   1885 H          -1.9476   -2.5993   -1.6974 H     1    ESP         0.0080
   1886 H          -1.5082   -2.6940   -1.6974 H     1    ESP         0.0093
   1887 H          -1.5104    2.2909   -2.0572 H     1    ESP         0.0047
   1888 H          -1.9502    2.1842   -2.0572 H     1    ESP         0.0048
   1889 H          -2.3619    1.9962   -2.0572 H     1    ESP         0.0041
   1890 H          -2.7306    1.7337   -2.0572 H     1    ESP         0.0031
   1891 H          -3.0429    1.4061   -2.0572 H     1    ESP         0.0019
   1892 H          -3.2876    1.0254   -2.0572 H     1    ESP         0.0008
   1893 H          -3.4558    0.6052   -2.0572 H     1    ESP        -0.0000
   1894 H          -3.5414    0.1608   -2.0572 H     1    ESP        -0.0005
   1895 H          -3.5414   -0.2918   -2.0572 H     1    ESP        -0.0006
   1896 H          -3.4558   -0.7362   -2.0572 H     1    ESP        -0.0003
   1897 H          -3.2876   -1.1564   -2.0572 H     1    ESP         0.0004
   1898 H          -3.0429   -1.5371   -2.0572 H     1    ESP         0.0015
   1899 H          -2.7306   -1.8646   -2.0572 H     1    ESP         0.0026
   1900 H          -2.3619   -2.1272   -2.0572 H     1    ESP         0.0038
   1901 H          -1.9502   -2.3152   -2.0572 H     1    ESP         0.0048
   1902 H          -1.5104   -2.4219   -2.0572 H     1    ESP         0.0054
   1903 H          -1.0583   -2.4434   -2.0572 H     1    ESP         0.0052
   1904 H          -1.1716    1.9973   -2.3750 H     1    ESP         0.0004
   1905 H          -1.6306    1.9456   -2.3750 H     1    ESP         0.0016
   1906 H          -2.0666    1.7930   -2.3750 H     1    ESP         0.0017
   1907 H          -2.4578    1.5473   -2.3750 H     1    ESP         0.0012
   1908 H          -2.7844    1.2206   -2.3750 H     1    ESP         0.0004
   1909 H          -3.0301    0.8295   -2.3750 H     1    ESP        -0.0004
   1910 H          -3.1827    0.3935   -2.3750 H     1    ESP        -0.0011
   1911 H          -3.2344   -0.0655   -2.3750 H     1    ESP        -0.0014
   1912 H          -3.1827   -0.5245   -2.3750 H     1    ESP        -0.0012
   1913 H          -3.0301   -0.9605   -2.3750 H     1    ESP        -0.0007
   1914 H          -2.7844   -1.3516   -2.3750 H     1    ESP         0.0001
   1915 H          -2.4578   -1.6783   -2.3750 H     1    ESP         0.0010
   1916 H          -2.0666   -1.9240   -2.3750 H     1    ESP         0.0018
   1917 H          -1.6306   -2.0766   -2.3750 H     1    ESP         0.0022
   1918 H          -1.1716   -2.1283   -2.3750 H     1    ESP         0.0018
   1919 H           0.5314   -0.0655   -2.6443 H     1    ESP        -0.0100
   1920 H           0.4683    0.3940   -2.6443 H     1    ESP        -0.0100
   1921 H          -0.8251    1.6019   -2.6443 H     1    ESP        -0.0034
   1922 H          -1.2878    1.6336   -2.6443 H     1    ESP        -0.0016
   1923 H          -1.7419    1.5392   -2.6443 H     1    ESP        -0.0007
   1924 H          -2.1537    1.3258   -2.6443 H     1    ESP        -0.0007
   1925 H          -2.4927    1.0093   -2.6443 H     1    ESP        -0.0011
   1926 H          -2.7336    0.6130   -2.6443 H     1    ESP        -0.0017
   1927 H          -2.8588    0.1664   -2.6443 H     1    ESP        -0.0021
   1928 H          -2.8588   -0.2974   -2.6443 H     1    ESP        -0.0021
   1929 H          -2.7336   -0.7440   -2.6443 H     1    ESP        -0.0018
   1930 H          -2.4927   -1.1402   -2.6443 H     1    ESP        -0.0012
   1931 H          -2.1537   -1.4568   -2.6443 H     1    ESP        -0.0006
   1932 H          -1.7419   -1.6702   -2.6443 H     1    ESP        -0.0003
   1933 H          -1.2878   -1.7645   -2.6443 H     1    ESP        -0.0007
   1934 H          -0.8251   -1.7329   -2.6443 H     1    ESP        -0.0020
   1935 H          -0.3881   -1.5776   -2.6443 H     1    ESP        -0.0042
   1936 H           0.4683   -0.5250   -2.6443 H     1    ESP        -0.0099
   1937 H           0.1369   -0.0655   -2.8597 H     1    ESP        -0.0083
   1938 H           0.0580    0.3821   -2.8597 H     1    ESP        -0.0082
   1939 H          -0.1692    0.7756   -2.8597 H     1    ESP        -0.0075
   1940 H          -0.5173    1.0678   -2.8597 H     1    ESP        -0.0061
   1941 H          -0.9444    1.2232   -2.8597 H     1    ESP        -0.0043
   1942 H          -1.3988    1.2232   -2.8597 H     1    ESP        -0.0030
   1943 H          -1.8259    1.0678   -2.8597 H     1    ESP        -0.0024
   1944 H          -2.1740    0.7756   -2.8597 H     1    ESP        -0.0025
   1945 H          -2.4013    0.3821   -2.8597 H     1    ESP        -0.0028
   1946 H          -2.4802   -0.0655   -2.8597 H     1    ESP        -0.0029
   1947 H          -2.4013   -0.5130   -2.8597 H     1    ESP        -0.0028
   1948 H          -2.1740   -0.9066   -2.8597 H     1    ESP        -0.0025
   1949 H          -1.8259   -1.1987   -2.8597 H     1    ESP        -0.0022
   1950 H          -1.3988   -1.3542   -2.8597 H     1    ESP        -0.0025
   1951 H          -0.9444   -1.3542   -2.8597 H     1    ESP        -0.0034
   1952 H          -0.5173   -1.1987   -2.8597 H     1    ESP        -0.0051
   1953 H          -0.1692   -0.9066   -2.8597 H     1    ESP        -0.0068
   1954 H           0.0580   -0.5130   -2.8597 H     1    ESP        -0.0080
   1955 H          -0.2842   -0.0655   -3.0168 H     1    ESP        -0.0071
   1956 H          -0.4030    0.3782   -3.0168 H     1    ESP        -0.0068
   1957 H          -0.7279    0.7031   -3.0168 H     1    ESP        -0.0058
   1958 H          -1.1716    0.8220   -3.0168 H     1    ESP        -0.0045
   1959 H          -1.6153    0.7031   -3.0168 H     1    ESP        -0.0038
   1960 H          -1.9402    0.3782   -3.0168 H     1    ESP        -0.0036
   1961 H          -2.0591   -0.0655   -3.0168 H     1    ESP        -0.0037
   1962 H          -1.9402   -0.5092   -3.0168 H     1    ESP        -0.0036
   1963 H          -1.6153   -0.8341   -3.0168 H     1    ESP        -0.0036
   1964 H          -1.1716   -0.9530   -3.0168 H     1    ESP        -0.0042
   1965 H          -0.7279   -0.8341   -3.0168 H     1    ESP        -0.0053
   1966 H          -0.4030   -0.5092   -3.0168 H     1    ESP        -0.0065
   1967 H          -0.7233   -0.0655   -3.1123 H     1    ESP        -0.0061
   1968 H          -0.9475    0.3227   -3.1123 H     1    ESP        -0.0056
   1969 H          -1.3958    0.3227   -3.1123 H     1    ESP        -0.0047
   1970 H          -1.6199   -0.0655   -3.1123 H     1    ESP        -0.0044
   1971 H          -1.3958   -0.4537   -3.1123 H     1    ESP        -0.0046
   1972 H          -0.9475   -0.4537   -3.1123 H     1    ESP        -0.0054
   1973 H          -1.1716   -0.0655   -3.1444 H     1    ESP        -0.0052
   1974 H          -0.3489    3.1515    1.9823 H     1    ESP         0.0075
   1975 H          -0.7882    3.0338    1.9823 H     1    ESP         0.0080
   1976 H           0.2170    3.4095    1.7565 H     1    ESP         0.0089
   1977 H          -0.2318    3.5371    1.7565 H     1    ESP         0.0103
   1978 H          -0.6964    3.4941    1.7565 H     1    ESP         0.0109
   1979 H          -1.1140    3.2861    1.7565 H     1    ESP         0.0109
   1980 H          -1.4284    2.9413    1.7565 H     1    ESP         0.0101
   1981 H           0.7023    3.4861    1.4543 H     1    ESP         0.0101
   1982 H           0.3179    3.7331    1.4543 H     1    ESP         0.0115
   1983 H          -0.1205    3.8618    1.4543 H     1    ESP         0.0125
   1984 H          -0.5774    3.8618    1.4543 H     1    ESP         0.0131
   1985 H          -1.0157    3.7331    1.4543 H     1    ESP         0.0133
   1986 H          -1.4001    3.4861    1.4543 H     1    ESP         0.0131
   1987 H          -1.6993    3.1408    1.4543 H     1    ESP         0.0125
   1988 H          -1.8891    2.7252    1.4543 H     1    ESP         0.0118
   1989 H           1.0147    3.5535    1.0890 H     1    ESP         0.0120
   1990 H           0.6534    3.8524    1.0890 H     1    ESP         0.0129
   1991 H           0.2291    4.0520    1.0890 H     1    ESP         0.0138
   1992 H          -0.2315    4.1399    1.0890 H     1    ESP         0.0145
   1993 H          -0.6994    4.1104    1.0890 H     1    ESP         0.0149
   1994 H          -1.1454    3.9655    1.0890 H     1    ESP         0.0150
   1995 H          -1.5413    3.7143    1.0890 H     1    ESP         0.0148
   1996 H          -1.8623    3.3725    1.0890 H     1    ESP         0.0144
   1997 H          -2.0882    2.9616    1.0890 H     1    ESP         0.0140
   1998 H           1.2572    3.5538    0.6765 H     1    ESP         0.0139
   1999 H           0.9319    3.8790    0.6765 H     1    ESP         0.0141
   2000 H           0.5424    4.1238    0.6765 H     1    ESP         0.0146
   2001 H           0.1082    4.2757    0.6765 H     1    ESP         0.0152
   2002 H          -0.3489    4.3272    0.6765 H     1    ESP         0.0157
   2003 H          -0.8060    4.2757    0.6765 H     1    ESP         0.0160
   2004 H          -1.2402    4.1238    0.6765 H     1    ESP         0.0161
   2005 H          -1.6297    3.8790    0.6765 H     1    ESP         0.0159
   2006 H          -1.9550    3.5538    0.6765 H     1    ESP         0.0156
   2007 H          -2.1998    3.1643    0.6765 H     1    ESP         0.0153
   2008 H           1.3612    3.5730    0.2348 H     1    ESP         0.0152
   2009 H           1.0418    3.9102    0.2348 H     1    ESP         0.0149
   2010 H           0.6573    4.1709    0.2348 H     1    ESP         0.0152
   2011 H           0.2258    4.3428    0.2348 H     1    ESP         0.0157
   2012 H          -0.2326    4.4180    0.2348 H     1    ESP         0.0162
   2013 H          -0.6965    4.3928    0.2348 H     1    ESP         0.0165
   2014 H          -1.1440    4.2685    0.2348 H     1    ESP         0.0166
   2015 H          -1.5544    4.0510    0.2348 H     1    ESP         0.0165
   2016 H          -1.9085    3.7502    0.2348 H     1    ESP         0.0163
   2017 H          -2.1896    3.3804    0.2348 H     1    ESP         0.0161
   2018 H          -2.3846    2.9589    0.2348 H     1    ESP         0.0160
   2019 H           1.3612    3.5730   -0.2168 H     1    ESP         0.0152
   2020 H           1.0418    3.9102   -0.2168 H     1    ESP         0.0149
   2021 H           0.6573    4.1709   -0.2168 H     1    ESP         0.0152
   2022 H           0.2258    4.3428   -0.2168 H     1    ESP         0.0157
   2023 H          -0.2326    4.4180   -0.2168 H     1    ESP         0.0162
   2024 H          -0.6965    4.3928   -0.2168 H     1    ESP         0.0165
   2025 H          -1.1440    4.2685   -0.2168 H     1    ESP         0.0166
   2026 H          -1.5544    4.0510   -0.2168 H     1    ESP         0.0165
   2027 H          -1.9085    3.7502   -0.2168 H     1    ESP         0.0163
   2028 H          -2.1896    3.3804   -0.2168 H     1    ESP         0.0160
   2029 H          -2.3846    2.9589   -0.2168 H     1    ESP         0.0159
   2030 H           1.2572    3.5538   -0.6585 H     1    ESP         0.0139
   2031 H           0.9319    3.8790   -0.6585 H     1    ESP         0.0141
   2032 H           0.5424    4.1238   -0.6585 H     1    ESP         0.0146
   2033 H           0.1082    4.2757   -0.6585 H     1    ESP         0.0152
   2034 H          -0.3489    4.3272   -0.6585 H     1    ESP         0.0157
   2035 H          -0.8060    4.2757   -0.6585 H     1    ESP         0.0160
   2036 H          -1.2402    4.1238   -0.6585 H     1    ESP         0.0160
   2037 H          -1.6297    3.8790   -0.6585 H     1    ESP         0.0159
   2038 H          -1.9550    3.5538   -0.6585 H     1    ESP         0.0156
   2039 H          -2.1998    3.1643   -0.6585 H     1    ESP         0.0153
   2040 H           1.0147    3.5535   -1.0710 H     1    ESP         0.0120
   2041 H           0.6534    3.8524   -1.0710 H     1    ESP         0.0129
   2042 H           0.2291    4.0520   -1.0710 H     1    ESP         0.0137
   2043 H          -0.2315    4.1399   -1.0710 H     1    ESP         0.0144
   2044 H          -0.6994    4.1104   -1.0710 H     1    ESP         0.0148
   2045 H          -1.1454    3.9655   -1.0710 H     1    ESP         0.0149
   2046 H          -1.5413    3.7143   -1.0710 H     1    ESP         0.0147
   2047 H          -1.8623    3.3725   -1.0710 H     1    ESP         0.0143
   2048 H          -2.0882    2.9616   -1.0710 H     1    ESP         0.0139
   2049 H           0.7023    3.4861   -1.4363 H     1    ESP         0.0101
   2050 H           0.3179    3.7331   -1.4363 H     1    ESP         0.0115
   2051 H          -0.1205    3.8618   -1.4363 H     1    ESP         0.0124
   2052 H          -0.5774    3.8618   -1.4363 H     1    ESP         0.0130
   2053 H          -1.0157    3.7331   -1.4363 H     1    ESP         0.0132
   2054 H          -1.4001    3.4861   -1.4363 H     1    ESP         0.0130
   2055 H          -1.6993    3.1408   -1.4363 H     1    ESP         0.0124
   2056 H          -1.8891    2.7252   -1.4363 H     1    ESP         0.0116
   2057 H           0.2170    3.4095   -1.7385 H     1    ESP         0.0088
   2058 H          -0.2318    3.5371   -1.7385 H     1    ESP         0.0102
   2059 H          -0.6964    3.4941   -1.7385 H     1    ESP         0.0108
   2060 H          -1.1140    3.2861   -1.7385 H     1    ESP         0.0107
   2061 H          -1.4284    2.9413   -1.7385 H     1    ESP         0.0100
   2062 H          -0.3489    3.1515   -1.9643 H     1    ESP         0.0074
   2063 H          -0.7882    3.0338   -1.9643 H     1    ESP         0.0078
   2064 H           3.0219    1.3433    1.9680 H     1    ESP        -0.0015
   2065 H           2.9042    1.7826    1.9680 H     1    ESP         0.0010
   2066 H           2.5826    2.1042    1.9680 H     1    ESP         0.0019
   2067 H           3.4130    1.3433    1.7422 H     1    ESP        -0.0000
   2068 H           3.3272    1.8020    1.7422 H     1    ESP         0.0026
   2069 H           3.0816    2.1987    1.7422 H     1    ESP         0.0042
   2070 H           2.7093    2.4798    1.7422 H     1    ESP         0.0049
   2071 H           2.2605    2.6075    1.7422 H     1    ESP         0.0046
   2072 H           3.3272    0.8847    1.7422 H     1    ESP        -0.0039
   2073 H           3.7485    1.3433    1.4401 H     1    ESP         0.0011
   2074 H           3.6835    1.7956    1.4401 H     1    ESP         0.0038
   2075 H           3.4937    2.2112    1.4401 H     1    ESP         0.0056
   2076 H           3.1945    2.5565    1.4401 H     1    ESP         0.0067
   2077 H           2.8102    2.8035    1.4401 H     1    ESP         0.0073
   2078 H           2.3718    2.9322    1.4401 H     1    ESP         0.0075
   2079 H           1.9149    2.9322    1.4401 H     1    ESP         0.0073
   2080 H           3.6835    0.8911    1.4401 H     1    ESP        -0.0026
   2081 H           4.0140    1.3433    1.0748 H     1    ESP         0.0020
   2082 H           3.9552    1.8085    1.0748 H     1    ESP         0.0047
   2083 H           3.7826    2.2445    1.0748 H     1    ESP         0.0066
   2084 H           3.5070    2.6239    1.0748 H     1    ESP         0.0079
   2085 H           3.1457    2.9227    1.0748 H     1    ESP         0.0088
   2086 H           2.7214    3.1224    1.0748 H     1    ESP         0.0094
   2087 H           2.2608    3.2103    1.0748 H     1    ESP         0.0098
   2088 H           1.7928    3.1808    1.0748 H     1    ESP         0.0104
   2089 H           3.7826    0.4422    1.0748 H     1    ESP        -0.0069
   2090 H           3.9552    0.8781    1.0748 H     1    ESP        -0.0017
   2091 H           4.1976    1.3433    0.6622 H     1    ESP         0.0026
   2092 H           4.1461    1.8004    0.6622 H     1    ESP         0.0053
   2093 H           3.9942    2.2346    0.6622 H     1    ESP         0.0072
   2094 H           3.7494    2.6242    0.6622 H     1    ESP         0.0086
   2095 H           3.4242    2.9494    0.6622 H     1    ESP         0.0096
   2096 H           3.0347    3.1942    0.6622 H     1    ESP         0.0103
   2097 H           2.6005    3.3461    0.6622 H     1    ESP         0.0109
   2098 H           2.1433    3.3976    0.6622 H     1    ESP         0.0117
   2099 H           1.6862    3.3461    0.6622 H     1    ESP         0.0131
   2100 H           3.9942    0.4520    0.6622 H     1    ESP        -0.0060
   2101 H           4.1461    0.8862    0.6622 H     1    ESP        -0.0010
   2102 H           4.2915    1.3433    0.2205 H     1    ESP         0.0029
   2103 H           4.2413    1.8051    0.2205 H     1    ESP         0.0056
   2104 H           4.0930    2.2453    0.2205 H     1    ESP         0.0075
   2105 H           3.8535    2.6433    0.2205 H     1    ESP         0.0090
   2106 H           3.5340    2.9806    0.2205 H     1    ESP         0.0100
   2107 H           3.1496    3.2413    0.2205 H     1    ESP         0.0108
   2108 H           2.7180    3.4132    0.2205 H     1    ESP         0.0115
   2109 H           2.2596    3.4883    0.2205 H     1    ESP         0.0124
   2110 H           1.7958    3.4632    0.2205 H     1    ESP         0.0140
   2111 H           4.0930    0.4413    0.2205 H     1    ESP        -0.0058
   2112 H           4.2413    0.8815    0.2205 H     1    ESP        -0.0007
   2113 H           4.2915    1.3433   -0.2310 H     1    ESP         0.0029
   2114 H           4.2413    1.8051   -0.2310 H     1    ESP         0.0056
   2115 H           4.0930    2.2453   -0.2310 H     1    ESP         0.0075
   2116 H           3.8535    2.6433   -0.2310 H     1    ESP         0.0090
   2117 H           3.5340    2.9806   -0.2310 H     1    ESP         0.0100
   2118 H           3.1496    3.2413   -0.2310 H     1    ESP         0.0107
   2119 H           2.7180    3.4132   -0.2310 H     1    ESP         0.0115
   2120 H           2.2596    3.4883   -0.2310 H     1    ESP         0.0124
   2121 H           1.7958    3.4632   -0.2310 H     1    ESP         0.0139
   2122 H           4.0930    0.4413   -0.2310 H     1    ESP        -0.0058
   2123 H           4.2413    0.8815   -0.2310 H     1    ESP        -0.0007
   2124 H           4.1976    1.3433   -0.6727 H     1    ESP         0.0026
   2125 H           4.1461    1.8004   -0.6727 H     1    ESP         0.0053
   2126 H           3.9942    2.2346   -0.6727 H     1    ESP         0.0072
   2127 H           3.7494    2.6242   -0.6727 H     1    ESP         0.0086
   2128 H           3.4242    2.9494   -0.6727 H     1    ESP         0.0096
   2129 H           3.0347    3.1942   -0.6727 H     1    ESP         0.0103
   2130 H           2.6005    3.3461   -0.6727 H     1    ESP         0.0109
   2131 H           2.1433    3.3976   -0.6727 H     1    ESP         0.0117
   2132 H           1.6862    3.3461   -0.6727 H     1    ESP         0.0130
   2133 H           3.9942    0.4520   -0.6727 H     1    ESP        -0.0061
   2134 H           4.1461    0.8862   -0.6727 H     1    ESP        -0.0010
   2135 H           4.0140    1.3433   -1.0852 H     1    ESP         0.0020
   2136 H           3.9552    1.8085   -1.0852 H     1    ESP         0.0047
   2137 H           3.7826    2.2445   -1.0852 H     1    ESP         0.0066
   2138 H           3.5070    2.6239   -1.0852 H     1    ESP         0.0079
   2139 H           3.1457    2.9227   -1.0852 H     1    ESP         0.0088
   2140 H           2.7214    3.1224   -1.0852 H     1    ESP         0.0093
   2141 H           2.2608    3.2103   -1.0852 H     1    ESP         0.0097
   2142 H           1.7928    3.1808   -1.0852 H     1    ESP         0.0102
   2143 H           3.7826    0.4422   -1.0852 H     1    ESP        -0.0070
   2144 H           3.9552    0.8781   -1.0852 H     1    ESP        -0.0018
   2145 H           3.7485    1.3433   -1.4506 H     1    ESP         0.0011
   2146 H           3.6835    1.7956   -1.4506 H     1    ESP         0.0038
   2147 H           3.4937    2.2112   -1.4506 H     1    ESP         0.0056
   2148 H           3.1945    2.5565   -1.4506 H     1    ESP         0.0067
   2149 H           2.8102    2.8035   -1.4506 H     1    ESP         0.0073
   2150 H           2.3718    2.9322   -1.4506 H     1    ESP         0.0074
   2151 H           1.9149    2.9322   -1.4506 H     1    ESP         0.0071
   2152 H           3.6835    0.8911   -1.4506 H     1    ESP        -0.0026
   2153 H           3.4130    1.3433   -1.7527 H     1    ESP        -0.0001
   2154 H           3.3272    1.8020   -1.7527 H     1    ESP         0.0026
   2155 H           3.0816    2.1987   -1.7527 H     1    ESP         0.0042
   2156 H           2.7093    2.4798   -1.7527 H     1    ESP         0.0048
   2157 H           2.2605    2.6075   -1.7527 H     1    ESP         0.0046
   2158 H           3.3272    0.8847   -1.7527 H     1    ESP        -0.0039
   2159 H           3.0219    1.3433   -1.9785 H     1    ESP        -0.0015
   2160 H           2.9042    1.7826   -1.9785 H     1    ESP         0.0010
   2161 H           2.5826    2.1042   -1.9785 H     1    ESP         0.0019
   2162 H          -0.4328   -3.0147    1.9649 H     1    ESP         0.0063
   2163 H           0.0065   -3.1324    1.9649 H     1    ESP         0.0047
   2164 H           0.4458   -3.0147    1.9649 H     1    ESP         0.0016
   2165 H          -1.0729   -2.9222    1.7391 H     1    ESP         0.0094
   2166 H          -0.7586   -3.2670    1.7391 H     1    ESP         0.0093
   2167 H          -0.3409   -3.4750    1.7391 H     1    ESP         0.0083
   2168 H           0.1237   -3.5180    1.7391 H     1    ESP         0.0064
   2169 H           0.5724   -3.3903    1.7391 H     1    ESP         0.0034
   2170 H           0.9448   -3.1091    1.7391 H     1    ESP        -0.0009
   2171 H          -1.3439   -3.1216    1.4370 H     1    ESP         0.0120
   2172 H          -1.0447   -3.4669    1.4370 H     1    ESP         0.0117
   2173 H          -0.6603   -3.7139    1.4370 H     1    ESP         0.0110
   2174 H          -0.2219   -3.8427    1.4370 H     1    ESP         0.0098
   2175 H           0.2349   -3.8427    1.4370 H     1    ESP         0.0078
   2176 H           0.6733   -3.7139    1.4370 H     1    ESP         0.0050
   2177 H           1.0577   -3.4669    1.4370 H     1    ESP         0.0012
   2178 H          -1.5069   -3.3533    1.0716 H     1    ESP         0.0139
   2179 H          -1.1859   -3.6951    1.0716 H     1    ESP         0.0134
   2180 H          -0.7900   -3.9464    1.0716 H     1    ESP         0.0127
   2181 H          -0.3440   -4.0913    1.0716 H     1    ESP         0.0115
   2182 H           0.1240   -4.1207    1.0716 H     1    ESP         0.0098
   2183 H           0.5846   -4.0329    1.0716 H     1    ESP         0.0074
   2184 H           1.0088   -3.8332    1.0716 H     1    ESP         0.0041
   2185 H           1.3701   -3.5343    1.0716 H     1    ESP        -0.0004
   2186 H          -1.8443   -3.1451    0.6591 H     1    ESP         0.0159
   2187 H          -1.5996   -3.5346    0.6591 H     1    ESP         0.0151
   2188 H          -1.2743   -3.8599    0.6591 H     1    ESP         0.0145
   2189 H          -0.8848   -4.1047    0.6591 H     1    ESP         0.0138
   2190 H          -0.4506   -4.2566    0.6591 H     1    ESP         0.0127
   2191 H           0.0065   -4.3081    0.6591 H     1    ESP         0.0112
   2192 H           0.4636   -4.2566    0.6591 H     1    ESP         0.0092
   2193 H           0.8978   -4.1047    0.6591 H     1    ESP         0.0064
   2194 H           1.2873   -3.8599    0.6591 H     1    ESP         0.0027
   2195 H           1.6126   -3.5346    0.6591 H     1    ESP        -0.0023
   2196 H          -1.8342   -3.3613    0.2174 H     1    ESP         0.0163
   2197 H          -1.5531   -3.7311    0.2174 H     1    ESP         0.0155
   2198 H          -1.1990   -4.0318    0.2174 H     1    ESP         0.0148
   2199 H          -0.7886   -4.2494    0.2174 H     1    ESP         0.0140
   2200 H          -0.3410   -4.3737    0.2174 H     1    ESP         0.0128
   2201 H           0.1228   -4.3988    0.2174 H     1    ESP         0.0113
   2202 H           0.5812   -4.3237    0.2174 H     1    ESP         0.0091
   2203 H           1.0127   -4.1517    0.2174 H     1    ESP         0.0062
   2204 H           1.3972   -3.8911    0.2174 H     1    ESP         0.0023
   2205 H           1.7166   -3.5538    0.2174 H     1    ESP        -0.0031
   2206 H          -1.8342   -3.3613   -0.2341 H     1    ESP         0.0162
   2207 H          -1.5531   -3.7311   -0.2341 H     1    ESP         0.0155
   2208 H          -1.1990   -4.0318   -0.2341 H     1    ESP         0.0148
   2209 H          -0.7886   -4.2494   -0.2341 H     1    ESP         0.0140
   2210 H          -0.3410   -4.3737   -0.2341 H     1    ESP         0.0128
   2211 H           0.1228   -4.3988   -0.2341 H     1    ESP         0.0113
   2212 H           0.5812   -4.3237   -0.2341 H     1    ESP         0.0091
   2213 H           1.0127   -4.1517   -0.2341 H     1    ESP         0.0062
   2214 H           1.3972   -3.8911   -0.2341 H     1    ESP         0.0023
   2215 H           1.7166   -3.5538   -0.2341 H     1    ESP        -0.0031
   2216 H          -1.8443   -3.1451   -0.6758 H     1    ESP         0.0158
   2217 H          -1.5996   -3.5346   -0.6758 H     1    ESP         0.0151
   2218 H          -1.2743   -3.8599   -0.6758 H     1    ESP         0.0145
   2219 H          -0.8848   -4.1047   -0.6758 H     1    ESP         0.0137
   2220 H          -0.4506   -4.2566   -0.6758 H     1    ESP         0.0127
   2221 H           0.0065   -4.3081   -0.6758 H     1    ESP         0.0112
   2222 H           0.4636   -4.2566   -0.6758 H     1    ESP         0.0092
   2223 H           0.8978   -4.1047   -0.6758 H     1    ESP         0.0064
   2224 H           1.2873   -3.8599   -0.6758 H     1    ESP         0.0027
   2225 H           1.6126   -3.5346   -0.6758 H     1    ESP        -0.0023
   2226 H          -1.5069   -3.3533   -1.0884 H     1    ESP         0.0139
   2227 H          -1.1859   -3.6951   -1.0884 H     1    ESP         0.0134
   2228 H          -0.7900   -3.9464   -1.0884 H     1    ESP         0.0126
   2229 H          -0.3440   -4.0913   -1.0884 H     1    ESP         0.0115
   2230 H           0.1240   -4.1207   -1.0884 H     1    ESP         0.0098
   2231 H           0.5846   -4.0329   -1.0884 H     1    ESP         0.0074
   2232 H           1.0088   -3.8332   -1.0884 H     1    ESP         0.0041
   2233 H           1.3701   -3.5343   -1.0884 H     1    ESP        -0.0004
   2234 H          -1.3439   -3.1216   -1.4537 H     1    ESP         0.0120
   2235 H          -1.0447   -3.4669   -1.4537 H     1    ESP         0.0117
   2236 H          -0.6603   -3.7139   -1.4537 H     1    ESP         0.0110
   2237 H          -0.2219   -3.8427   -1.4537 H     1    ESP         0.0098
   2238 H           0.2349   -3.8427   -1.4537 H     1    ESP         0.0078
   2239 H           0.6733   -3.7139   -1.4537 H     1    ESP         0.0050
   2240 H           1.0577   -3.4669   -1.4537 H     1    ESP         0.0012
   2241 H          -1.0729   -2.9222   -1.7558 H     1    ESP         0.0094
   2242 H          -0.7586   -3.2670   -1.7558 H     1    ESP         0.0093
   2243 H          -0.3409   -3.4750   -1.7558 H     1    ESP         0.0083
   2244 H           0.1237   -3.5180   -1.7558 H     1    ESP         0.0064
   2245 H           0.5724   -3.3903   -1.7558 H     1    ESP         0.0034
   2246 H           0.9448   -3.1091   -1.7558 H     1    ESP        -0.0009
   2247 H          -0.4328   -3.0147   -1.9816 H     1    ESP         0.0062
   2248 H           0.0065   -3.1324   -1.9816 H     1    ESP         0.0047
   2249 H           0.4458   -3.0147   -1.9816 H     1    ESP         0.0015
   2250 H           0.4179    1.2400    2.9706 H     1    ESP        -0.0069
   2251 H           0.1943    1.6272    2.9706 H     1    ESP        -0.0051
   2252 H          -0.2528    1.6272    2.9706 H     1    ESP        -0.0043
   2253 H           0.7366    1.6822    2.8708 H     1    ESP        -0.0057
   2254 H           0.4129    2.0058    2.8708 H     1    ESP        -0.0038
   2255 H          -0.0292    2.1243    2.8708 H     1    ESP        -0.0025
   2256 H          -0.4714    2.0058    2.8708 H     1    ESP        -0.0021
   2257 H           0.9679    2.0767    2.7070 H     1    ESP        -0.0039
   2258 H           0.6216    2.3673    2.7070 H     1    ESP        -0.0020
   2259 H           0.1968    2.5219    2.7070 H     1    ESP        -0.0006
   2260 H          -0.2553    2.5219    2.7070 H     1    ESP         0.0003
   2261 H          -0.6801    2.3673    2.7070 H     1    ESP         0.0005
   2262 H           1.1242    2.4751    2.4828 H     1    ESP        -0.0013
   2263 H           0.7483    2.7405    2.4828 H     1    ESP         0.0004
   2264 H           0.3146    2.8946    2.4828 H     1    ESP         0.0018
   2265 H          -0.1446    2.9260    2.4828 H     1    ESP         0.0028
   2266 H          -0.5952    2.8324    2.4828 H     1    ESP         0.0033
   2267 H          -1.0038    2.6207    2.4828 H     1    ESP         0.0032
   2268 H           1.2430    2.8354    2.2033 H     1    ESP         0.0017
   2269 H           0.8561    3.0785    2.2033 H     1    ESP         0.0031
   2270 H           0.4248    3.2294    2.2033 H     1    ESP         0.0045
   2271 H          -0.0292    3.2805    2.2033 H     1    ESP         0.0056
   2272 H          -0.9146    3.0785    2.2033 H     1    ESP         0.0064
   2273 H          -1.3015    2.8354    2.2033 H     1    ESP         0.0060
   2274 H           1.2738    3.1902    1.8746 H     1    ESP         0.0049
   2275 H           0.8683    3.4070    1.8746 H     1    ESP         0.0062
   2276 H           1.2698    3.4900    1.5041 H     1    ESP         0.0080
   2277 H           1.5572    3.5383    1.1001 H     1    ESP         0.0100
   2278 H           1.5572    3.5383   -1.0919 H     1    ESP         0.0100
   2279 H           1.2698    3.4900   -1.4959 H     1    ESP         0.0079
   2280 H           1.2738    3.1902   -1.8664 H     1    ESP         0.0049
   2281 H           0.8683    3.4070   -1.8664 H     1    ESP         0.0061
   2282 H           1.2430    2.8354   -2.1951 H     1    ESP         0.0016
   2283 H           0.8561    3.0785   -2.1951 H     1    ESP         0.0030
   2284 H           0.4248    3.2294   -2.1951 H     1    ESP         0.0043
   2285 H          -0.0292    3.2805   -2.1951 H     1    ESP         0.0054
   2286 H          -0.4833    3.2294   -2.1951 H     1    ESP         0.0061
   2287 H          -0.9146    3.0785   -2.1951 H     1    ESP         0.0062
   2288 H          -1.3015    2.8354   -2.1951 H     1    ESP         0.0058
   2289 H           1.1242    2.4751   -2.4746 H     1    ESP        -0.0013
   2290 H           0.7483    2.7405   -2.4746 H     1    ESP         0.0003
   2291 H           0.3146    2.8946   -2.4746 H     1    ESP         0.0017
   2292 H          -0.1446    2.9260   -2.4746 H     1    ESP         0.0026
   2293 H          -0.5952    2.8324   -2.4746 H     1    ESP         0.0031
   2294 H          -1.0038    2.6207   -2.4746 H     1    ESP         0.0030
   2295 H           0.9679    2.0767   -2.6988 H     1    ESP        -0.0040
   2296 H           0.6216    2.3673   -2.6988 H     1    ESP        -0.0022
   2297 H           0.1968    2.5219   -2.6988 H     1    ESP        -0.0008
   2298 H          -0.2553    2.5219   -2.6988 H     1    ESP         0.0001
   2299 H          -0.6801    2.3673   -2.6988 H     1    ESP         0.0003
   2300 H           0.7366    1.6822   -2.8626 H     1    ESP        -0.0058
   2301 H           0.4129    2.0058   -2.8626 H     1    ESP        -0.0039
   2302 H          -0.0292    2.1243   -2.8626 H     1    ESP        -0.0026
   2303 H          -0.4714    2.0058   -2.8626 H     1    ESP        -0.0022
   2304 H           0.4179    1.2400   -2.9624 H     1    ESP        -0.0070
   2305 H           0.1943    1.6272   -2.9624 H     1    ESP        -0.0053
   2306 H          -0.2528    1.6272   -2.9624 H     1    ESP        -0.0044
   2307 H           1.2420    0.7411    2.9969 H     1    ESP        -0.0083
   2308 H           1.6892    0.7411    2.9634 H     1    ESP        -0.0081
   2309 H           1.4656    1.1283    2.9634 H     1    ESP        -0.0070
   2310 H           1.0185    1.1283    2.9634 H     1    ESP        -0.0074
   2311 H           0.7949    0.7411    2.9634 H     1    ESP        -0.0084
   2312 H           1.0185    0.3539    2.9634 H     1    ESP        -0.0092
   2313 H           1.4656    0.3539    2.9634 H     1    ESP        -0.0094
   2314 H           2.1263    0.7411    2.8636 H     1    ESP        -0.0078
   2315 H           2.0078    1.1832    2.8636 H     1    ESP        -0.0061
   2316 H           1.6842    1.5069    2.8636 H     1    ESP        -0.0053
   2317 H           1.2420    1.6254    2.8636 H     1    ESP        -0.0056
   2318 H           2.0078    0.2990    2.8636 H     1    ESP        -0.0098
   2319 H           2.5437    0.7411    2.6998 H     1    ESP        -0.0074
   2320 H           2.4652    1.1863    2.6998 H     1    ESP        -0.0053
   2321 H           2.2392    1.5778    2.6998 H     1    ESP        -0.0039
   2322 H           1.8929    1.8684    2.6998 H     1    ESP        -0.0033
   2323 H           1.4681    2.0230    2.6998 H     1    ESP        -0.0034
   2324 H           2.4652    0.2959    2.6998 H     1    ESP        -0.0099
   2325 H           2.9320    0.7411    2.4756 H     1    ESP        -0.0068
   2326 H           2.8693    1.1971    2.4756 H     1    ESP        -0.0042
   2327 H           2.6860    1.6192    2.4756 H     1    ESP        -0.0024
   2328 H           2.3955    1.9762    2.4756 H     1    ESP        -0.0013
   2329 H           2.0195    2.2416    2.4756 H     1    ESP        -0.0009
   2330 H           1.5859    2.3957    2.4756 H     1    ESP        -0.0010
   2331 H           2.8693    0.2852    2.4756 H     1    ESP        -0.0099
   2332 H           3.2825    0.7411    2.1960 H     1    ESP        -0.0061
   2333 H           3.2314    1.1952    2.1960 H     1    ESP        -0.0031
   2334 H           3.0805    1.6265    2.1960 H     1    ESP        -0.0009
   2335 H           2.8374    2.0134    2.1960 H     1    ESP         0.0006
   2336 H           2.5143    2.3365    2.1960 H     1    ESP         0.0014
   2337 H           2.1274    2.5796    2.1960 H     1    ESP         0.0017
   2338 H           1.6961    2.7305    2.1960 H     1    ESP         0.0016
   2339 H           3.2314    0.2871    2.1960 H     1    ESP        -0.0097
   2340 H           3.5875    0.7411    1.8673 H     1    ESP        -0.0052
   2341 H           2.1396    2.9081    1.8673 H     1    ESP         0.0044
   2342 H           1.6996    3.0415    1.8673 H     1    ESP         0.0044
   2343 H           3.5425    0.2835    1.8673 H     1    ESP        -0.0094
   2344 H           1.6932    3.2997    1.4969 H     1    ESP         0.0072
   2345 H           3.8006    0.2900    1.4969 H     1    ESP        -0.0089
   2346 H           1.6996    3.6299    0.6644 H     1    ESP         0.0117
   2347 H           1.6996    3.6299   -0.6707 H     1    ESP         0.0117
   2348 H           1.6932    3.2997   -1.5031 H     1    ESP         0.0071
   2349 H           3.8006    0.2900   -1.5031 H     1    ESP        -0.0090
   2350 H           3.5875    0.7411   -1.8736 H     1    ESP        -0.0053
   2351 H           2.1396    2.9081   -1.8736 H     1    ESP         0.0043
   2352 H           1.6996    3.0415   -1.8736 H     1    ESP         0.0043
   2353 H           3.5425    0.2835   -1.8736 H     1    ESP        -0.0095
   2354 H           3.2825    0.7411   -2.2023 H     1    ESP        -0.0062
   2355 H           3.2314    1.1952   -2.2023 H     1    ESP        -0.0031
   2356 H           3.0805    1.6265   -2.2023 H     1    ESP        -0.0009
   2357 H           2.5143    2.3365   -2.2023 H     1    ESP         0.0014
   2358 H           2.1274    2.5796   -2.2023 H     1    ESP         0.0016
   2359 H           1.6961    2.7305   -2.2023 H     1    ESP         0.0015
   2360 H           3.2314    0.2871   -2.2023 H     1    ESP        -0.0098
   2361 H           2.9320    0.7411   -2.4818 H     1    ESP        -0.0069
   2362 H           2.8693    1.1971   -2.4818 H     1    ESP        -0.0043
   2363 H           2.6860    1.6192   -2.4818 H     1    ESP        -0.0024
   2364 H           2.3955    1.9762   -2.4818 H     1    ESP        -0.0014
   2365 H           2.0195    2.2416   -2.4818 H     1    ESP        -0.0010
   2366 H           1.5859    2.3957   -2.4818 H     1    ESP        -0.0011
   2367 H           2.8693    0.2852   -2.4818 H     1    ESP        -0.0101
   2368 H           2.5437    0.7411   -2.7060 H     1    ESP        -0.0075
   2369 H           2.4652    1.1863   -2.7060 H     1    ESP        -0.0053
   2370 H           2.2392    1.5778   -2.7060 H     1    ESP        -0.0039
   2371 H           1.8929    1.8684   -2.7060 H     1    ESP        -0.0033
   2372 H           1.4681    2.0230   -2.7060 H     1    ESP        -0.0035
   2373 H           1.0160    2.0230   -2.7060 H     1    ESP        -0.0042
   2374 H           2.4652    0.2959   -2.7060 H     1    ESP        -0.0100
   2375 H           2.1263    0.7411   -2.8698 H     1    ESP        -0.0079
   2376 H           2.0078    1.1832   -2.8698 H     1    ESP        -0.0061
   2377 H           1.6842    1.5069   -2.8698 H     1    ESP        -0.0054
   2378 H           1.2420    1.6254   -2.8698 H     1    ESP        -0.0056
   2379 H           0.7999    1.5069   -2.8698 H     1    ESP        -0.0066
   2380 H           2.0078    0.2990   -2.8698 H     1    ESP        -0.0099
   2381 H           1.6892    0.7411   -2.9696 H     1    ESP        -0.0081
   2382 H           1.4656    1.1283   -2.9696 H     1    ESP        -0.0070
   2383 H           1.0185    1.1283   -2.9696 H     1    ESP        -0.0075
   2384 H           0.7949    0.7411   -2.9696 H     1    ESP        -0.0085
   2385 H           1.0185    0.3539   -2.9696 H     1    ESP        -0.0092
   2386 H           1.4656    0.3539   -2.9696 H     1    ESP        -0.0095
   2387 H           1.2420    0.7411   -3.0031 H     1    ESP        -0.0083
   2388 H           1.3546   -0.6324    2.9912 H     1    ESP        -0.0109
   2389 H           1.8017   -0.6324    2.9576 H     1    ESP        -0.0119
   2390 H           1.5781   -0.2451    2.9576 H     1    ESP        -0.0109
   2391 H           1.1310   -0.2451    2.9576 H     1    ESP        -0.0102
   2392 H           0.9074   -0.6324    2.9576 H     1    ESP        -0.0100
   2393 H           1.1310   -1.0196    2.9576 H     1    ESP        -0.0106
   2394 H           1.5781   -1.0196    2.9576 H     1    ESP        -0.0118
   2395 H           2.2388   -0.6324    2.8579 H     1    ESP        -0.0128
   2396 H           2.1204   -0.1902    2.8579 H     1    ESP        -0.0116
   2397 H           1.3546   -1.5166    2.8579 H     1    ESP        -0.0112
   2398 H           1.7967   -1.3982    2.8579 H     1    ESP        -0.0126
   2399 H           2.1204   -1.0745    2.8579 H     1    ESP        -0.0133
   2400 H           2.6562   -0.6324    2.6941 H     1    ESP        -0.0136
   2401 H           2.5777   -0.1872    2.6941 H     1    ESP        -0.0121
   2402 H           1.5806   -1.9142    2.6941 H     1    ESP        -0.0117
   2403 H           2.0054   -1.7596    2.6941 H     1    ESP        -0.0134
   2404 H           2.3517   -1.4691    2.6941 H     1    ESP        -0.0145
   2405 H           2.5777   -1.0776    2.6941 H     1    ESP        -0.0145
   2406 H           3.0445   -0.6324    2.4699 H     1    ESP        -0.0143
   2407 H           2.9819   -0.1764    2.4699 H     1    ESP        -0.0125
   2408 H           1.6984   -2.2870    2.4699 H     1    ESP        -0.0116
   2409 H           2.1321   -2.1329    2.4699 H     1    ESP        -0.0138
   2410 H           2.5080   -1.8675    2.4699 H     1    ESP        -0.0154
   2411 H           2.7985   -1.5104    2.4699 H     1    ESP        -0.0160
   2412 H           2.9819   -1.0883    2.4699 H     1    ESP        -0.0156
   2413 H           3.3951   -0.6324    2.1903 H     1    ESP        -0.0150
   2414 H           3.3439   -0.1783    2.1903 H     1    ESP        -0.0127
   2415 H           1.8086   -2.6217    2.1903 H     1    ESP        -0.0112
   2416 H           2.2399   -2.4708    2.1903 H     1    ESP        -0.0139
   2417 H           2.6268   -2.2277    2.1903 H     1    ESP        -0.0160
   2418 H           2.9499   -1.9046    2.1903 H     1    ESP        -0.0171
   2419 H           3.1930   -1.5177    2.1903 H     1    ESP        -0.0173
   2420 H           3.3439   -1.0864    2.1903 H     1    ESP        -0.0166
   2421 H           3.7001   -0.6324    1.8616 H     1    ESP        -0.0155
   2422 H           3.6550   -0.1748    1.8616 H     1    ESP        -0.0128
   2423 H           1.8121   -2.9328    1.8616 H     1    ESP        -0.0099
   2424 H           2.2521   -2.7993    1.8616 H     1    ESP        -0.0133
   2425 H           2.6576   -2.5826    1.8616 H     1    ESP        -0.0159
   2426 H           3.0131   -2.2909    1.8616 H     1    ESP        -0.0177
   2427 H           3.3048   -1.9355    1.8616 H     1    ESP        -0.0186
   2428 H           3.5215   -1.5300    1.8616 H     1    ESP        -0.0184
   2429 H           3.6550   -1.0900    1.8616 H     1    ESP        -0.0174
   2430 H           3.9526   -0.6324    1.4912 H     1    ESP        -0.0158
   2431 H           3.9132   -0.1812    1.4912 H     1    ESP        -0.0129
   2432 H           2.2432   -3.0738    1.4912 H     1    ESP        -0.0122
   2433 H           2.6536   -2.8824    1.4912 H     1    ESP        -0.0154
   2434 H           3.0246   -2.6226    1.4912 H     1    ESP        -0.0178
   2435 H           3.3448   -2.3024    1.4912 H     1    ESP        -0.0192
   2436 H           3.6046   -1.9314    1.4912 H     1    ESP        -0.0197
   2437 H           3.7960   -1.5210    1.4912 H     1    ESP        -0.0193
   2438 H           3.9132   -1.0835    1.4912 H     1    ESP        -0.0180
   2439 H           4.1472   -0.6324    1.0872 H     1    ESP        -0.0161
   2440 H           4.1110   -0.1844    1.0872 H     1    ESP        -0.0129
   2441 H           4.0035    0.2520    1.0872 H     1    ESP        -0.0089
   2442 H           2.1315   -3.3147    1.0872 H     1    ESP        -0.0100
   2443 H           2.5517   -3.1554    1.0872 H     1    ESP        -0.0140
   2444 H           2.9409   -2.9307    1.0872 H     1    ESP        -0.0170
   2445 H           3.2891   -2.6464    1.0872 H     1    ESP        -0.0192
   2446 H           3.5871   -2.3100    1.0872 H     1    ESP        -0.0204
   2447 H           3.8273   -1.9302    1.0872 H     1    ESP        -0.0206
   2448 H           4.0035   -1.5167    1.0872 H     1    ESP        -0.0200
   2449 H           4.1110   -1.0803    1.0872 H     1    ESP        -0.0185
   2450 H           4.2793   -0.6324    0.6587 H     1    ESP        -0.0163
   2451 H           4.2433   -0.1748    0.6587 H     1    ESP        -0.0128
   2452 H           2.2584   -3.4140    0.6587 H     1    ESP        -0.0104
   2453 H           2.6824   -3.2384    0.6587 H     1    ESP        -0.0146
   2454 H           3.0737   -2.9986    0.6587 H     1    ESP        -0.0177
   2455 H           3.4227   -2.7005    0.6587 H     1    ESP        -0.0199
   2456 H           3.7208   -2.3515    0.6587 H     1    ESP        -0.0210
   2457 H           3.9606   -1.9602    0.6587 H     1    ESP        -0.0213
   2458 H           4.1362   -1.5362    0.6587 H     1    ESP        -0.0205
   2459 H           4.2433   -1.0899    0.6587 H     1    ESP        -0.0189
   2460 H           4.3462   -0.6324    0.2153 H     1    ESP        -0.0164
   2461 H           4.3111   -0.1757    0.2153 H     1    ESP        -0.0128
   2462 H           2.3658   -3.4479    0.2153 H     1    ESP        -0.0111
   2463 H           2.7837   -3.2605    0.2153 H     1    ESP        -0.0152
   2464 H           3.1682   -3.0116    0.2153 H     1    ESP        -0.0183
   2465 H           3.5101   -2.7069    0.2153 H     1    ESP        -0.0203
   2466 H           3.8015   -2.3535    0.2153 H     1    ESP        -0.0214
   2467 H           4.0355   -1.9598    0.2153 H     1    ESP        -0.0216
   2468 H           4.2068   -1.5350    0.2153 H     1    ESP        -0.0208
   2469 H           4.3111   -1.0890    0.2153 H     1    ESP        -0.0190
   2470 H           4.3462   -0.6324   -0.2330 H     1    ESP        -0.0164
   2471 H           4.3111   -0.1757   -0.2330 H     1    ESP        -0.0128
   2472 H           2.3658   -3.4479   -0.2330 H     1    ESP        -0.0111
   2473 H           2.7837   -3.2605   -0.2330 H     1    ESP        -0.0153
   2474 H           3.1682   -3.0116   -0.2330 H     1    ESP        -0.0183
   2475 H           3.5101   -2.7069   -0.2330 H     1    ESP        -0.0204
   2476 H           3.8015   -2.3535   -0.2330 H     1    ESP        -0.0214
   2477 H           4.0355   -1.9598   -0.2330 H     1    ESP        -0.0216
   2478 H           4.2068   -1.5350   -0.2330 H     1    ESP        -0.0208
   2479 H           4.3111   -1.0890   -0.2330 H     1    ESP        -0.0191
   2480 H           4.2793   -0.6324   -0.6764 H     1    ESP        -0.0163
   2481 H           4.2433   -0.1748   -0.6764 H     1    ESP        -0.0128
   2482 H           2.2584   -3.4140   -0.6764 H     1    ESP        -0.0105
   2483 H           2.6824   -3.2384   -0.6764 H     1    ESP        -0.0146
   2484 H           3.0737   -2.9986   -0.6764 H     1    ESP        -0.0178
   2485 H           3.4227   -2.7005   -0.6764 H     1    ESP        -0.0199
   2486 H           3.7208   -2.3515   -0.6764 H     1    ESP        -0.0211
   2487 H           3.9606   -1.9602   -0.6764 H     1    ESP        -0.0213
   2488 H           4.1362   -1.5362   -0.6764 H     1    ESP        -0.0206
   2489 H           4.2433   -1.0899   -0.6764 H     1    ESP        -0.0189
   2490 H           4.1472   -0.6324   -1.1049 H     1    ESP        -0.0162
   2491 H           4.1110   -0.1844   -1.1049 H     1    ESP        -0.0130
   2492 H           4.0035    0.2520   -1.1049 H     1    ESP        -0.0089
   2493 H           2.1315   -3.3147   -1.1049 H     1    ESP        -0.0101
   2494 H           2.5517   -3.1554   -1.1049 H     1    ESP        -0.0140
   2495 H           2.9409   -2.9307   -1.1049 H     1    ESP        -0.0171
   2496 H           3.2891   -2.6464   -1.1049 H     1    ESP        -0.0192
   2497 H           3.5871   -2.3100   -1.1049 H     1    ESP        -0.0204
   2498 H           3.8273   -1.9302   -1.1049 H     1    ESP        -0.0207
   2499 H           4.0035   -1.5167   -1.1049 H     1    ESP        -0.0201
   2500 H           4.1110   -1.0803   -1.1049 H     1    ESP        -0.0186
   2501 H           3.9526   -0.6324   -1.5088 H     1    ESP        -0.0159
   2502 H           3.9132   -0.1812   -1.5088 H     1    ESP        -0.0130
   2503 H           3.7960    0.2562   -1.5088 H     1    ESP        -0.0094
   2504 H           2.2432   -3.0738   -1.5088 H     1    ESP        -0.0123
   2505 H           2.6536   -2.8824   -1.5088 H     1    ESP        -0.0155
   2506 H           3.0246   -2.6226   -1.5088 H     1    ESP        -0.0179
   2507 H           3.3448   -2.3024   -1.5088 H     1    ESP        -0.0193
   2508 H           3.6046   -1.9314   -1.5088 H     1    ESP        -0.0198
   2509 H           3.7960   -1.5210   -1.5088 H     1    ESP        -0.0194
   2510 H           3.9132   -1.0835   -1.5088 H     1    ESP        -0.0181
   2511 H           3.7001   -0.6324   -1.8793 H     1    ESP        -0.0156
   2512 H           3.6550   -0.1748   -1.8793 H     1    ESP        -0.0129
   2513 H           1.8121   -2.9328   -1.8793 H     1    ESP        -0.0099
   2514 H           2.2521   -2.7993   -1.8793 H     1    ESP        -0.0133
   2515 H           2.6576   -2.5826   -1.8793 H     1    ESP        -0.0160
   2516 H           3.0131   -2.2909   -1.8793 H     1    ESP        -0.0178
   2517 H           3.3048   -1.9355   -1.8793 H     1    ESP        -0.0187
   2518 H           3.5215   -1.5300   -1.8793 H     1    ESP        -0.0185
   2519 H           3.6550   -1.0900   -1.8793 H     1    ESP        -0.0175
   2520 H           3.3951   -0.6324   -2.2080 H     1    ESP        -0.0151
   2521 H           3.3439   -0.1783   -2.2080 H     1    ESP        -0.0128
   2522 H           1.8086   -2.6217   -2.2080 H     1    ESP        -0.0113
   2523 H           2.2399   -2.4708   -2.2080 H     1    ESP        -0.0140
   2524 H           2.6268   -2.2277   -2.2080 H     1    ESP        -0.0160
   2525 H           2.9499   -1.9046   -2.2080 H     1    ESP        -0.0172
   2526 H           3.1930   -1.5177   -2.2080 H     1    ESP        -0.0174
   2527 H           3.3439   -1.0864   -2.2080 H     1    ESP        -0.0167
   2528 H           3.0445   -0.6324   -2.4876 H     1    ESP        -0.0145
   2529 H           2.9819   -0.1764   -2.4876 H     1    ESP        -0.0126
   2530 H           1.6984   -2.2870   -2.4876 H     1    ESP        -0.0117
   2531 H           2.1321   -2.1329   -2.4876 H     1    ESP        -0.0139
   2532 H           2.5080   -1.8675   -2.4876 H     1    ESP        -0.0155
   2533 H           2.7985   -1.5104   -2.4876 H     1    ESP        -0.0161
   2534 H           2.9819   -1.0883   -2.4876 H     1    ESP        -0.0157
   2535 H           2.6562   -0.6324   -2.7118 H     1    ESP        -0.0137
   2536 H           2.5777   -0.1872   -2.7118 H     1    ESP        -0.0122
   2537 H           1.5806   -1.9142   -2.7118 H     1    ESP        -0.0118
   2538 H           2.0054   -1.7596   -2.7118 H     1    ESP        -0.0135
   2539 H           2.3517   -1.4691   -2.7118 H     1    ESP        -0.0146
   2540 H           2.5777   -1.0776   -2.7118 H     1    ESP        -0.0146
   2541 H           2.2388   -0.6324   -2.8756 H     1    ESP        -0.0129
   2542 H           2.1204   -0.1902   -2.8756 H     1    ESP        -0.0117
   2543 H           1.3546   -1.5166   -2.8756 H     1    ESP        -0.0113
   2544 H           1.7967   -1.3982   -2.8756 H     1    ESP        -0.0127
   2545 H           2.1204   -1.0745   -2.8756 H     1    ESP        -0.0134
   2546 H           1.8017   -0.6324   -2.9753 H     1    ESP        -0.0120
   2547 H           1.5781   -0.2451   -2.9753 H     1    ESP        -0.0110
   2548 H           1.1310   -0.2451   -2.9753 H     1    ESP        -0.0103
   2549 H           0.9074   -0.6324   -2.9753 H     1    ESP        -0.0100
   2550 H           1.1310   -1.0196   -2.9753 H     1    ESP        -0.0107
   2551 H           1.5781   -1.0196   -2.9753 H     1    ESP        -0.0119
   2552 H           1.3546   -0.6324   -3.0088 H     1    ESP        -0.0110
   2553 H           0.6240   -1.1831    2.9613 H     1    ESP        -0.0086
   2554 H          -0.0467   -1.5704    2.9613 H     1    ESP        -0.0052
   2555 H           0.4004   -1.5704    2.9613 H     1    ESP        -0.0068
   2556 H          -0.2653   -1.9489    2.8615 H     1    ESP        -0.0031
   2557 H           0.1769   -2.0674    2.8615 H     1    ESP        -0.0043
   2558 H           0.6190   -1.9489    2.8615 H     1    ESP        -0.0067
   2559 H           0.9427   -1.6253    2.8615 H     1    ESP        -0.0093
   2560 H          -0.4740   -2.3104    2.6977 H     1    ESP        -0.0007
   2561 H          -0.0492   -2.4650    2.6977 H     1    ESP        -0.0016
   2562 H           0.4029   -2.4650    2.6977 H     1    ESP        -0.0036
   2563 H           0.8277   -2.3104    2.6977 H     1    ESP        -0.0064
   2564 H           1.1740   -2.0198    2.6977 H     1    ESP        -0.0095
   2565 H          -0.7977   -2.5638    2.4735 H     1    ESP         0.0021
   2566 H          -0.3891   -2.7755    2.4735 H     1    ESP         0.0016
   2567 H           0.0615   -2.8692    2.4735 H     1    ESP         0.0002
   2568 H           0.5207   -2.8377    2.4735 H     1    ESP        -0.0021
   2569 H           0.9543   -2.6836    2.4735 H     1    ESP        -0.0053
   2570 H           1.3303   -2.4182    2.4735 H     1    ESP        -0.0090
   2571 H          -0.7085   -3.0216    2.1939 H     1    ESP         0.0049
   2572 H          -0.2772   -3.1725    2.1939 H     1    ESP         0.0040
   2573 H           0.1769   -3.2237    2.1939 H     1    ESP         0.0022
   2574 H           0.6309   -3.1725    2.1939 H     1    ESP        -0.0004
   2575 H           1.0622   -3.0216    2.1939 H     1    ESP        -0.0039
   2576 H           1.4491   -2.7785    2.1939 H     1    ESP        -0.0080
   2577 H           1.0744   -3.3501    1.8652 H     1    ESP        -0.0015
   2578 H           1.4799   -3.1333    1.8652 H     1    ESP        -0.0059
   2579 H           1.4759   -3.4331    1.4948 H     1    ESP        -0.0035
   2580 H           1.7632   -3.4814    1.0908 H     1    ESP        -0.0053
   2581 H           1.7632   -3.4814   -1.1013 H     1    ESP        -0.0053
   2582 H           1.4759   -3.4331   -1.5052 H     1    ESP        -0.0035
   2583 H           1.0744   -3.3501   -1.8757 H     1    ESP        -0.0015
   2584 H           1.4799   -3.1333   -1.8757 H     1    ESP        -0.0060
   2585 H          -1.0954   -2.7785   -2.2044 H     1    ESP         0.0050
   2586 H          -0.7085   -3.0216   -2.2044 H     1    ESP         0.0049
   2587 H           0.1769   -3.2237   -2.2044 H     1    ESP         0.0022
   2588 H           0.6309   -3.1725   -2.2044 H     1    ESP        -0.0004
   2589 H           1.0622   -3.0216   -2.2044 H     1    ESP        -0.0039
   2590 H           1.4491   -2.7785   -2.2044 H     1    ESP        -0.0081
   2591 H          -0.7977   -2.5638   -2.4840 H     1    ESP         0.0021
   2592 H          -0.3891   -2.7755   -2.4840 H     1    ESP         0.0016
   2593 H           0.0615   -2.8692   -2.4840 H     1    ESP         0.0002
   2594 H           0.5207   -2.8377   -2.4840 H     1    ESP        -0.0021
   2595 H           0.9543   -2.6836   -2.4840 H     1    ESP        -0.0053
   2596 H           1.3303   -2.4182   -2.4840 H     1    ESP        -0.0091
   2597 H          -0.4740   -2.3104   -2.7081 H     1    ESP        -0.0007
   2598 H          -0.0492   -2.4650   -2.7081 H     1    ESP        -0.0016
   2599 H           0.4029   -2.4650   -2.7081 H     1    ESP        -0.0036
   2600 H           0.8277   -2.3104   -2.7081 H     1    ESP        -0.0064
   2601 H           1.1740   -2.0198   -2.7081 H     1    ESP        -0.0096
   2602 H          -0.2653   -1.9489   -2.8720 H     1    ESP        -0.0031
   2603 H           0.1769   -2.0674   -2.8720 H     1    ESP        -0.0044
   2604 H           0.6190   -1.9489   -2.8720 H     1    ESP        -0.0067
   2605 H           0.9427   -1.6253   -2.8720 H     1    ESP        -0.0094
   2606 H           0.6240   -1.1831   -2.9717 H     1    ESP        -0.0087
   2607 H          -0.0467   -1.5704   -2.9717 H     1    ESP        -0.0052
   2608 H           0.4004   -1.5704   -2.9717 H     1    ESP        -0.0069
   2609 H          -1.1716   -0.0655    3.5056 H     1    ESP        -0.0042
   2610 H          -0.7148   -0.0655    3.4757 H     1    ESP        -0.0050
   2611 H          -0.9432    0.3301    3.4757 H     1    ESP        -0.0044
   2612 H          -1.4000    0.3301    3.4757 H     1    ESP        -0.0037
   2613 H          -1.6285   -0.0655    3.4757 H     1    ESP        -0.0034
   2614 H          -1.4000   -0.4611    3.4757 H     1    ESP        -0.0037
   2615 H          -0.9432   -0.4611    3.4757 H     1    ESP        -0.0044
   2616 H          -0.2657   -0.0655    3.3864 H     1    ESP        -0.0059
   2617 H          -0.3871    0.3874    3.3864 H     1    ESP        -0.0055
   2618 H          -0.7187    0.7190    3.3864 H     1    ESP        -0.0046
   2619 H          -1.1716    0.8404    3.3864 H     1    ESP        -0.0035
   2620 H          -1.6245    0.7190    3.3864 H     1    ESP        -0.0029
   2621 H          -1.9561    0.3874    3.3864 H     1    ESP        -0.0027
   2622 H          -2.0775   -0.0655    3.3864 H     1    ESP        -0.0028
   2623 H          -1.9561   -0.5184    3.3864 H     1    ESP        -0.0028
   2624 H          -1.6245   -0.8500    3.3864 H     1    ESP        -0.0029
   2625 H          -1.1716   -0.9714    3.3864 H     1    ESP        -0.0035
   2626 H          -0.7187   -0.8500    3.3864 H     1    ESP        -0.0045
   2627 H          -0.3871   -0.5184    3.3864 H     1    ESP        -0.0055
   2628 H           0.1678   -0.0655    3.2392 H     1    ESP        -0.0071
   2629 H           0.0870    0.3926    3.2392 H     1    ESP        -0.0067
   2630 H          -0.1456    0.7955    3.2392 H     1    ESP        -0.0059
   2631 H          -0.5019    1.0945    3.2392 H     1    ESP        -0.0047
   2632 H          -0.9390    1.2535    3.2392 H     1    ESP        -0.0033
   2633 H          -1.4042    1.2535    3.2392 H     1    ESP        -0.0023
   2634 H          -1.8413    1.0945    3.2392 H     1    ESP        -0.0019
   2635 H          -2.1976    0.7955    3.2392 H     1    ESP        -0.0019
   2636 H          -2.4302    0.3926    3.2392 H     1    ESP        -0.0020
   2637 H          -2.5110   -0.0655    3.2392 H     1    ESP        -0.0021
   2638 H          -2.4302   -0.5236    3.2392 H     1    ESP        -0.0021
   2639 H          -2.1976   -0.9264    3.2392 H     1    ESP        -0.0020
   2640 H          -1.8413   -1.2254    3.2392 H     1    ESP        -0.0020
   2641 H          -1.4042   -1.3845    3.2392 H     1    ESP        -0.0023
   2642 H          -0.9390   -1.3845    3.2392 H     1    ESP        -0.0032
   2643 H          -0.5019   -1.2254    3.2392 H     1    ESP        -0.0045
   2644 H          -0.1456   -0.9264    3.2392 H     1    ESP        -0.0059
   2645 H           0.0870   -0.5236    3.2392 H     1    ESP        -0.0068
   2646 H           0.5784   -0.0655    3.0367 H     1    ESP        -0.0086
   2647 H           0.5188    0.3874    3.0367 H     1    ESP        -0.0082
   2648 H           0.3439    0.8095    3.0367 H     1    ESP        -0.0075
   2649 H           0.0658    1.1719    3.0367 H     1    ESP        -0.0063
   2650 H          -0.2966    1.4501    3.0367 H     1    ESP        -0.0047
   2651 H          -0.7187    1.6249    3.0367 H     1    ESP        -0.0029
   2652 H          -1.1716    1.6845    3.0367 H     1    ESP        -0.0016
   2653 H          -1.6245    1.6249    3.0367 H     1    ESP        -0.0008
   2654 H          -2.0466    1.4501    3.0367 H     1    ESP        -0.0006
   2655 H          -2.4090    1.1719    3.0367 H     1    ESP        -0.0007
   2656 H          -2.6872    0.8095    3.0367 H     1    ESP        -0.0010
   2657 H          -2.8620    0.3874    3.0367 H     1    ESP        -0.0013
   2658 H          -2.9216   -0.0655    3.0367 H     1    ESP        -0.0015
   2659 H          -2.8620   -0.5184    3.0367 H     1    ESP        -0.0015
   2660 H          -2.6872   -0.9405    3.0367 H     1    ESP        -0.0013
   2661 H          -2.4090   -1.3029    3.0367 H     1    ESP        -0.0010
   2662 H          -2.0466   -1.5810    3.0367 H     1    ESP        -0.0007
   2663 H          -1.6245   -1.7559    3.0367 H     1    ESP        -0.0008
   2664 H          -1.1716   -1.8155    3.0367 H     1    ESP        -0.0014
   2665 H          -0.7187   -1.7559    3.0367 H     1    ESP        -0.0026
   2666 H          -0.2966   -1.5810    3.0367 H     1    ESP        -0.0043
   2667 H           0.0658   -1.3029    3.0367 H     1    ESP        -0.0062
   2668 H           0.3439   -0.9405    3.0367 H     1    ESP        -0.0077
   2669 H           0.5188   -0.5184    3.0367 H     1    ESP        -0.0085
   2670 H          -1.0563    2.0620    2.7824 H     1    ESP        -0.0002
   2671 H          -1.5163    2.0371    2.7824 H     1    ESP         0.0008
   2672 H          -1.9602    1.9138    2.7824 H     1    ESP         0.0011
   2673 H          -2.3673    1.6980    2.7824 H     1    ESP         0.0009
   2674 H          -2.7185    1.3998    2.7824 H     1    ESP         0.0005
   2675 H          -2.9973    1.0330    2.7824 H     1    ESP        -0.0001
   2676 H          -3.1907    0.6148    2.7824 H     1    ESP        -0.0005
   2677 H          -3.2898    0.1649    2.7824 H     1    ESP        -0.0008
   2678 H          -3.2898   -0.2959    2.7824 H     1    ESP        -0.0009
   2679 H          -3.1907   -0.7458    2.7824 H     1    ESP        -0.0007
   2680 H          -2.9973   -1.1640    2.7824 H     1    ESP        -0.0004
   2681 H          -2.7185   -1.5308    2.7824 H     1    ESP         0.0001
   2682 H          -2.3673   -1.8290    2.7824 H     1    ESP         0.0006
   2683 H          -1.9602   -2.0448    2.7824 H     1    ESP         0.0009
   2684 H          -1.5163   -2.1681    2.7824 H     1    ESP         0.0008
   2685 H          -1.0563   -2.1930    2.7824 H     1    ESP         0.0001
   2686 H          -0.6016   -2.1185    2.7824 H     1    ESP        -0.0013
   2687 H          -1.4000    2.3988    2.4805 H     1    ESP         0.0030
   2688 H          -1.8489    2.3149    2.4805 H     1    ESP         0.0032
   2689 H          -2.2748    2.1499    2.4805 H     1    ESP         0.0030
   2690 H          -2.6631    1.9095    2.4805 H     1    ESP         0.0024
   2691 H          -3.0006    1.6018    2.4805 H     1    ESP         0.0017
   2692 H          -3.2758    1.2374    2.4805 H     1    ESP         0.0010
   2693 H          -3.4794    0.8285    2.4805 H     1    ESP         0.0003
   2694 H          -3.6043    0.3893    2.4805 H     1    ESP        -0.0001
   2695 H          -3.6465   -0.0655    2.4805 H     1    ESP        -0.0003
   2696 H          -3.6043   -0.5203    2.4805 H     1    ESP        -0.0003
   2697 H          -3.4794   -0.9595    2.4805 H     1    ESP         0.0000
   2698 H          -3.2758   -1.3683    2.4805 H     1    ESP         0.0005
   2699 H          -3.0006   -1.7328    2.4805 H     1    ESP         0.0012
   2700 H          -2.6631   -2.0405    2.4805 H     1    ESP         0.0019
   2701 H          -2.2748   -2.2809    2.4805 H     1    ESP         0.0025
   2702 H          -1.8489   -2.4459    2.4805 H     1    ESP         0.0029
   2703 H          -1.4000   -2.5298    2.4805 H     1    ESP         0.0029
   2704 H          -0.9433   -2.5298    2.4805 H     1    ESP         0.0022
   2705 H          -1.8533    2.6263    2.1363 H     1    ESP         0.0059
   2706 H          -2.2870    2.4774    2.1363 H     1    ESP         0.0053
   2707 H          -2.6903    2.2591    2.1363 H     1    ESP         0.0044
   2708 H          -3.0522    1.9774    2.1363 H     1    ESP         0.0035
   2709 H          -3.3628    1.6400    2.1363 H     1    ESP         0.0025
   2710 H          -3.6137    1.2561    2.1363 H     1    ESP         0.0016
   2711 H          -3.7979    0.8361    2.1363 H     1    ESP         0.0009
   2712 H          -3.9105    0.3915    2.1363 H     1    ESP         0.0004
   2713 H          -3.9483   -0.0655    2.1363 H     1    ESP         0.0002
   2714 H          -3.9105   -0.5225    2.1363 H     1    ESP         0.0003
   2715 H          -3.7979   -0.9671    2.1363 H     1    ESP         0.0006
   2716 H          -3.6137   -1.3871    2.1363 H     1    ESP         0.0011
   2717 H          -3.3628   -1.7710    2.1363 H     1    ESP         0.0019
   2718 H          -3.0522   -2.1084    2.1363 H     1    ESP         0.0027
   2719 H          -2.6903   -2.3901    2.1363 H     1    ESP         0.0036
   2720 H          -2.2870   -2.6084    2.1363 H     1    ESP         0.0045
   2721 H          -1.8533   -2.7573    2.1363 H     1    ESP         0.0052
   2722 H          -1.4009   -2.8327    2.1363 H     1    ESP         0.0056
   2723 H          -2.2790    2.7561    1.7556 H     1    ESP         0.0080
   2724 H          -2.6872    2.5595    1.7556 H     1    ESP         0.0067
   2725 H          -3.0615    2.3043    1.7556 H     1    ESP         0.0054
   2726 H          -3.3936    1.9962    1.7556 H     1    ESP         0.0042
   2727 H          -3.6760    1.6420    1.7556 H     1    ESP         0.0031
   2728 H          -3.9025    1.2496    1.7556 H     1    ESP         0.0022
   2729 H          -4.0680    0.8279    1.7556 H     1    ESP         0.0014
   2730 H          -4.1688    0.3863    1.7556 H     1    ESP         0.0009
   2731 H          -4.2027   -0.0655    1.7556 H     1    ESP         0.0007
   2732 H          -4.1688   -0.5173    1.7556 H     1    ESP         0.0007
   2733 H          -4.0680   -0.9589    1.7556 H     1    ESP         0.0010
   2734 H          -3.9025   -1.3806    1.7556 H     1    ESP         0.0016
   2735 H          -3.6760   -1.7730    1.7556 H     1    ESP         0.0024
   2736 H          -3.3936   -2.1272    1.7556 H     1    ESP         0.0033
   2737 H          -3.0615   -2.4353    1.7556 H     1    ESP         0.0044
   2738 H          -2.6872   -2.6905    1.7556 H     1    ESP         0.0055
   2739 H          -2.2790   -2.8871    1.7556 H     1    ESP         0.0067
   2740 H          -1.8461   -3.0206    1.7556 H     1    ESP         0.0078
   2741 H          -1.3981   -3.0881    1.7556 H     1    ESP         0.0087
   2742 H          -2.3829    2.9326    1.3450 H     1    ESP         0.0102
   2743 H          -2.7884    2.7349    1.3450 H     1    ESP         0.0084
   2744 H          -3.1624    2.4826    1.3450 H     1    ESP         0.0068
   2745 H          -3.4977    2.1807    1.3450 H     1    ESP         0.0054
   2746 H          -3.7876    1.8352    1.3450 H     1    ESP         0.0042
   2747 H          -4.0267    1.4526    1.3450 H     1    ESP         0.0031
   2748 H          -4.2102    1.0405    1.3450 H     1    ESP         0.0022
   2749 H          -4.3345    0.6068    1.3450 H     1    ESP         0.0016
   2750 H          -4.3973    0.1601    1.3450 H     1    ESP         0.0012
   2751 H          -4.3973   -0.2911    1.3450 H     1    ESP         0.0011
   2752 H          -4.3345   -0.7378    1.3450 H     1    ESP         0.0012
   2753 H          -4.2102   -1.1714    1.3450 H     1    ESP         0.0017
   2754 H          -4.0267   -1.5836    1.3450 H     1    ESP         0.0024
   2755 H          -3.7876   -1.9661    1.3450 H     1    ESP         0.0033
   2756 H          -3.4977   -2.3117    1.3450 H     1    ESP         0.0044
   2757 H          -3.1624   -2.6136    1.3450 H     1    ESP         0.0056
   2758 H          -2.7884   -2.8659    1.3450 H     1    ESP         0.0069
   2759 H          -2.3829   -3.0636    1.3450 H     1    ESP         0.0084
   2760 H          -1.9539   -3.2030    1.3450 H     1    ESP         0.0100
   2761 H          -2.5947    3.0011    0.9115 H     1    ESP         0.0114
   2762 H          -2.9907    2.7841    0.9115 H     1    ESP         0.0092
   2763 H          -3.3543    2.5162    0.9115 H     1    ESP         0.0074
   2764 H          -3.6789    2.2023    0.9115 H     1    ESP         0.0059
   2765 H          -3.9588    1.8478    0.9115 H     1    ESP         0.0045
   2766 H          -4.1890    1.4593    0.9115 H     1    ESP         0.0034
   2767 H          -4.3653    1.0435    0.9115 H     1    ESP         0.0025
   2768 H          -4.4846    0.6079    0.9115 H     1    ESP         0.0019
   2769 H          -4.5448    0.1603    0.9115 H     1    ESP         0.0015
   2770 H          -4.5448   -0.2913    0.9115 H     1    ESP         0.0014
   2771 H          -4.4846   -0.7389    0.9115 H     1    ESP         0.0015
   2772 H          -4.3653   -1.1745    0.9115 H     1    ESP         0.0020
   2773 H          -4.1890   -1.5902    0.9115 H     1    ESP         0.0027
   2774 H          -3.9588   -1.9788    0.9115 H     1    ESP         0.0036
   2775 H          -3.6789   -2.3332    0.9115 H     1    ESP         0.0048
   2776 H          -3.3543   -2.6472    0.9115 H     1    ESP         0.0061
   2777 H          -2.9907   -2.9151    0.9115 H     1    ESP         0.0075
   2778 H          -2.5947   -3.1321    0.9115 H     1    ESP         0.0092
   2779 H          -2.1732   -3.2944    0.9115 H     1    ESP         0.0111
   2780 H          -2.9066    2.9397    0.4625 H     1    ESP         0.0108
   2781 H          -3.2840    2.6875    0.4625 H     1    ESP         0.0087
   2782 H          -3.6253    2.3882    0.4625 H     1    ESP         0.0070
   2783 H          -3.9246    2.0469    0.4625 H     1    ESP         0.0055
   2784 H          -4.1768    1.6695    0.4625 H     1    ESP         0.0042
   2785 H          -4.3775    1.2624    0.4625 H     1    ESP         0.0032
   2786 H          -4.5234    0.8326    0.4625 H     1    ESP         0.0024
   2787 H          -4.6120    0.3874    0.4625 H     1    ESP         0.0018
   2788 H          -4.6417   -0.0655    0.4625 H     1    ESP         0.0016
   2789 H          -4.6120   -0.5184    0.4625 H     1    ESP         0.0016
   2790 H          -4.5234   -0.9636    0.4625 H     1    ESP         0.0019
   2791 H          -4.3775   -1.3934    0.4625 H     1    ESP         0.0025
   2792 H          -4.1768   -1.8005    0.4625 H     1    ESP         0.0034
   2793 H          -3.9246   -2.1779    0.4625 H     1    ESP         0.0044
   2794 H          -3.6253   -2.5192    0.4625 H     1    ESP         0.0057
   2795 H          -3.2840   -2.8185    0.4625 H     1    ESP         0.0071
   2796 H          -2.9066   -3.0707    0.4625 H     1    ESP         0.0088
   2797 H          -2.4995   -3.2714    0.4625 H     1    ESP         0.0107
   2798 H          -2.0697   -3.4173    0.4625 H     1    ESP         0.0131
   2799 H          -2.7905    3.0376    0.0056 H     1    ESP         0.0120
   2800 H          -3.1740    2.8051    0.0056 H     1    ESP         0.0096
   2801 H          -3.5247    2.5255    0.0056 H     1    ESP         0.0078
   2802 H          -3.8367    2.2033    0.0056 H     1    ESP         0.0062
   2803 H          -4.1049    1.8439    0.0056 H     1    ESP         0.0048
   2804 H          -4.3250    1.4531    0.0056 H     1    ESP         0.0037
   2805 H          -4.4933    1.0374    0.0056 H     1    ESP         0.0028
   2806 H          -4.6071    0.6036    0.0056 H     1    ESP         0.0021
   2807 H          -4.6644    0.1588    0.0056 H     1    ESP         0.0017
   2808 H          -4.6644   -0.2897    0.0056 H     1    ESP         0.0016
   2809 H          -4.6071   -0.7345    0.0056 H     1    ESP         0.0018
   2810 H          -4.4933   -1.1684    0.0056 H     1    ESP         0.0022
   2811 H          -4.3250   -1.5841    0.0056 H     1    ESP         0.0029
   2812 H          -4.1049   -1.9749    0.0056 H     1    ESP         0.0039
   2813 H          -3.8367   -2.3343    0.0056 H     1    ESP         0.0050
   2814 H          -3.5247   -2.6565    0.0056 H     1    ESP         0.0064
   2815 H          -3.1740   -2.9361    0.0056 H     1    ESP         0.0079
   2816 H          -2.7905   -3.1686    0.0056 H     1    ESP         0.0097
   2817 H          -2.3804   -3.3501    0.0056 H     1    ESP         0.0118
   2818 H          -2.9066    2.9397   -0.4512 H     1    ESP         0.0108
   2819 H          -3.2840    2.6875   -0.4512 H     1    ESP         0.0087
   2820 H          -3.6253    2.3882   -0.4512 H     1    ESP         0.0069
   2821 H          -3.9246    2.0469   -0.4512 H     1    ESP         0.0054
   2822 H          -4.1768    1.6695   -0.4512 H     1    ESP         0.0042
   2823 H          -4.3775    1.2624   -0.4512 H     1    ESP         0.0031
   2824 H          -4.5234    0.8326   -0.4512 H     1    ESP         0.0023
   2825 H          -4.6120    0.3874   -0.4512 H     1    ESP         0.0018
   2826 H          -4.6417   -0.0655   -0.4512 H     1    ESP         0.0016
   2827 H          -4.6120   -0.5184   -0.4512 H     1    ESP         0.0016
   2828 H          -4.5234   -0.9636   -0.4512 H     1    ESP         0.0019
   2829 H          -4.3775   -1.3934   -0.4512 H     1    ESP         0.0025
   2830 H          -4.1768   -1.8005   -0.4512 H     1    ESP         0.0034
   2831 H          -3.9246   -2.1779   -0.4512 H     1    ESP         0.0044
   2832 H          -3.6253   -2.5192   -0.4512 H     1    ESP         0.0057
   2833 H          -3.2840   -2.8185   -0.4512 H     1    ESP         0.0072
   2834 H          -2.9066   -3.0707   -0.4512 H     1    ESP         0.0088
   2835 H          -2.4995   -3.2714   -0.4512 H     1    ESP         0.0108
   2836 H          -2.0697   -3.4173   -0.4512 H     1    ESP         0.0131
   2837 H          -2.5947    3.0011   -0.9002 H     1    ESP         0.0113
   2838 H          -2.9907    2.7841   -0.9002 H     1    ESP         0.0091
   2839 H          -3.3543    2.5162   -0.9002 H     1    ESP         0.0073
   2840 H          -3.6789    2.2023   -0.9002 H     1    ESP         0.0058
   2841 H          -3.9588    1.8478   -0.9002 H     1    ESP         0.0045
   2842 H          -4.1890    1.4593   -0.9002 H     1    ESP         0.0034
   2843 H          -4.3653    1.0435   -0.9002 H     1    ESP         0.0025
   2844 H          -4.4846    0.6079   -0.9002 H     1    ESP         0.0018
   2845 H          -4.5448    0.1603   -0.9002 H     1    ESP         0.0015
   2846 H          -4.5448   -0.2913   -0.9002 H     1    ESP         0.0013
   2847 H          -4.4846   -0.7389   -0.9002 H     1    ESP         0.0015
   2848 H          -4.3653   -1.1745   -0.9002 H     1    ESP         0.0020
   2849 H          -4.1890   -1.5902   -0.9002 H     1    ESP         0.0027
   2850 H          -3.9588   -1.9788   -0.9002 H     1    ESP         0.0036
   2851 H          -3.6789   -2.3332   -0.9002 H     1    ESP         0.0048
   2852 H          -3.3543   -2.6472   -0.9002 H     1    ESP         0.0061
   2853 H          -2.9907   -2.9151   -0.9002 H     1    ESP         0.0076
   2854 H          -2.5947   -3.1321   -0.9002 H     1    ESP         0.0092
   2855 H          -2.1732   -3.2944   -0.9002 H     1    ESP         0.0112
   2856 H          -2.3829    2.9326   -1.3338 H     1    ESP         0.0101
   2857 H          -2.7884    2.7349   -1.3338 H     1    ESP         0.0083
   2858 H          -3.1624    2.4826   -1.3338 H     1    ESP         0.0067
   2859 H          -3.4977    2.1807   -1.3338 H     1    ESP         0.0053
   2860 H          -3.7876    1.8352   -1.3338 H     1    ESP         0.0041
   2861 H          -4.0267    1.4526   -1.3338 H     1    ESP         0.0030
   2862 H          -4.2102    1.0405   -1.3338 H     1    ESP         0.0022
   2863 H          -4.3345    0.6068   -1.3338 H     1    ESP         0.0015
   2864 H          -4.3973    0.1601   -1.3338 H     1    ESP         0.0011
   2865 H          -4.3973   -0.2911   -1.3338 H     1    ESP         0.0010
   2866 H          -4.3345   -0.7378   -1.3338 H     1    ESP         0.0012
   2867 H          -4.2102   -1.1714   -1.3338 H     1    ESP         0.0017
   2868 H          -4.0267   -1.5836   -1.3338 H     1    ESP         0.0024
   2869 H          -3.7876   -1.9661   -1.3338 H     1    ESP         0.0033
   2870 H          -3.4977   -2.3117   -1.3338 H     1    ESP         0.0044
   2871 H          -3.1624   -2.6136   -1.3338 H     1    ESP         0.0056
   2872 H          -2.7884   -2.8659   -1.3338 H     1    ESP         0.0070
   2873 H          -2.3829   -3.0636   -1.3338 H     1    ESP         0.0085
   2874 H          -1.9539   -3.2030   -1.3338 H     1    ESP         0.0101
   2875 H          -2.2790    2.7561   -1.7444 H     1    ESP         0.0078
   2876 H          -2.6872    2.5595   -1.7444 H     1    ESP         0.0065
   2877 H          -3.0615    2.3043   -1.7444 H     1    ESP         0.0053
   2878 H          -3.3936    1.9962   -1.7444 H     1    ESP         0.0041
   2879 H          -3.6760    1.6420   -1.7444 H     1    ESP         0.0030
   2880 H          -3.9025    1.2496   -1.7444 H     1    ESP         0.0021
   2881 H          -4.0680    0.8279   -1.7444 H     1    ESP         0.0014
   2882 H          -4.1688    0.3863   -1.7444 H     1    ESP         0.0009
   2883 H          -4.2027   -0.0655   -1.7444 H     1    ESP         0.0007
   2884 H          -4.1688   -0.5173   -1.7444 H     1    ESP         0.0007
   2885 H          -4.0680   -0.9589   -1.7444 H     1    ESP         0.0010
   2886 H          -3.9025   -1.3806   -1.7444 H     1    ESP         0.0016
   2887 H          -3.6760   -1.7730   -1.7444 H     1    ESP         0.0024
   2888 H          -3.3936   -2.1272   -1.7444 H     1    ESP         0.0034
   2889 H          -3.0615   -2.4353   -1.7444 H     1    ESP         0.0044
   2890 H          -2.6872   -2.6905   -1.7444 H     1    ESP         0.0056
   2891 H          -2.2790   -2.8871   -1.7444 H     1    ESP         0.0068
   2892 H          -1.8461   -3.0206   -1.7444 H     1    ESP         0.0079
   2893 H          -1.8533    2.6263   -2.1250 H     1    ESP         0.0058
   2894 H          -2.2870    2.4774   -2.1250 H     1    ESP         0.0051
   2895 H          -2.6903    2.2591   -2.1250 H     1    ESP         0.0043
   2896 H          -3.0522    1.9774   -2.1250 H     1    ESP         0.0034
   2897 H          -3.3628    1.6400   -2.1250 H     1    ESP         0.0024
   2898 H          -3.6137    1.2561   -2.1250 H     1    ESP         0.0016
   2899 H          -3.7979    0.8361   -2.1250 H     1    ESP         0.0009
   2900 H          -3.9105    0.3915   -2.1250 H     1    ESP         0.0004
   2901 H          -3.9483   -0.0655   -2.1250 H     1    ESP         0.0002
   2902 H          -3.9105   -0.5225   -2.1250 H     1    ESP         0.0002
   2903 H          -3.7979   -0.9671   -2.1250 H     1    ESP         0.0005
   2904 H          -3.6137   -1.3871   -2.1250 H     1    ESP         0.0011
   2905 H          -3.3628   -1.7710   -2.1250 H     1    ESP         0.0019
   2906 H          -3.0522   -2.1084   -2.1250 H     1    ESP         0.0028
   2907 H          -2.6903   -2.3901   -2.1250 H     1    ESP         0.0037
   2908 H          -2.2870   -2.6084   -2.1250 H     1    ESP         0.0046
   2909 H          -1.8533   -2.7573   -2.1250 H     1    ESP         0.0053
   2910 H          -1.4009   -2.8327   -2.1250 H     1    ESP         0.0057
   2911 H          -1.4000    2.3988   -2.4693 H     1    ESP         0.0028
   2912 H          -1.8489    2.3149   -2.4693 H     1    ESP         0.0031
   2913 H          -2.2748    2.1499   -2.4693 H     1    ESP         0.0028
   2914 H          -2.6631    1.9095   -2.4693 H     1    ESP         0.0023
   2915 H          -3.0006    1.6018   -2.4693 H     1    ESP         0.0016
   2916 H          -3.2758    1.2374   -2.4693 H     1    ESP         0.0009
   2917 H          -3.4794    0.8285   -2.4693 H     1    ESP         0.0003
   2918 H          -3.6043    0.3893   -2.4693 H     1    ESP        -0.0002
   2919 H          -3.6465   -0.0655   -2.4693 H     1    ESP        -0.0004
   2920 H          -3.6043   -0.5203   -2.4693 H     1    ESP        -0.0003
   2921 H          -3.4794   -0.9595   -2.4693 H     1    ESP        -0.0000
   2922 H          -3.2758   -1.3683   -2.4693 H     1    ESP         0.0005
   2923 H          -3.0006   -1.7328   -2.4693 H     1    ESP         0.0012
   2924 H          -2.6631   -2.0405   -2.4693 H     1    ESP         0.0019
   2925 H          -2.2748   -2.2809   -2.4693 H     1    ESP         0.0025
   2926 H          -1.8489   -2.4459   -2.4693 H     1    ESP         0.0030
   2927 H          -1.4000   -2.5298   -2.4693 H     1    ESP         0.0030
   2928 H          -0.9433   -2.5298   -2.4693 H     1    ESP         0.0024
   2929 H          -1.0563    2.0620   -2.7711 H     1    ESP        -0.0003
   2930 H          -1.5163    2.0371   -2.7711 H     1    ESP         0.0006
   2931 H          -1.9602    1.9138   -2.7711 H     1    ESP         0.0010
   2932 H          -2.3673    1.6980   -2.7711 H     1    ESP         0.0008
   2933 H          -2.7185    1.3998   -2.7711 H     1    ESP         0.0004
   2934 H          -2.9973    1.0330   -2.7711 H     1    ESP        -0.0001
   2935 H          -3.1907    0.6148   -2.7711 H     1    ESP        -0.0006
   2936 H          -3.2898    0.1649   -2.7711 H     1    ESP        -0.0009
   2937 H          -3.2898   -0.2959   -2.7711 H     1    ESP        -0.0010
   2938 H          -3.1907   -0.7458   -2.7711 H     1    ESP        -0.0008
   2939 H          -2.9973   -1.1640   -2.7711 H     1    ESP        -0.0004
   2940 H          -2.7185   -1.5308   -2.7711 H     1    ESP         0.0001
   2941 H          -2.3673   -1.8290   -2.7711 H     1    ESP         0.0006
   2942 H          -1.9602   -2.0448   -2.7711 H     1    ESP         0.0009
   2943 H          -1.5163   -2.1681   -2.7711 H     1    ESP         0.0009
   2944 H          -1.0563   -2.1930   -2.7711 H     1    ESP         0.0002
   2945 H          -0.6016   -2.1185   -2.7711 H     1    ESP        -0.0012
   2946 H           0.5784   -0.0655   -3.0255 H     1    ESP        -0.0087
   2947 H           0.5188    0.3874   -3.0255 H     1    ESP        -0.0083
   2948 H           0.3439    0.8095   -3.0255 H     1    ESP        -0.0076
   2949 H           0.0658    1.1719   -3.0255 H     1    ESP        -0.0064
   2950 H          -0.2966    1.4501   -3.0255 H     1    ESP        -0.0048
   2951 H          -0.7187    1.6249   -3.0255 H     1    ESP        -0.0031
   2952 H          -1.1716    1.6845   -3.0255 H     1    ESP        -0.0017
   2953 H          -1.6245    1.6249   -3.0255 H     1    ESP        -0.0009
   2954 H          -2.0466    1.4501   -3.0255 H     1    ESP        -0.0007
   2955 H          -2.4090    1.1719   -3.0255 H     1    ESP        -0.0008
   2956 H          -2.6872    0.8095   -3.0255 H     1    ESP        -0.0011
   2957 H          -2.8620    0.3874   -3.0255 H     1    ESP        -0.0014
   2958 H          -2.9216   -0.0655   -3.0255 H     1    ESP        -0.0016
   2959 H          -2.8620   -0.5184   -3.0255 H     1    ESP        -0.0015
   2960 H          -2.6872   -0.9405   -3.0255 H     1    ESP        -0.0013
   2961 H          -2.4090   -1.3029   -3.0255 H     1    ESP        -0.0010
   2962 H          -2.0466   -1.5810   -3.0255 H     1    ESP        -0.0007
   2963 H          -1.6245   -1.7559   -3.0255 H     1    ESP        -0.0008
   2964 H          -1.1716   -1.8155   -3.0255 H     1    ESP        -0.0014
   2965 H          -0.7187   -1.7559   -3.0255 H     1    ESP        -0.0026
   2966 H          -0.2966   -1.5810   -3.0255 H     1    ESP        -0.0043
   2967 H           0.0658   -1.3029   -3.0255 H     1    ESP        -0.0063
   2968 H           0.3439   -0.9405   -3.0255 H     1    ESP        -0.0079
   2969 H           0.5188   -0.5184   -3.0255 H     1    ESP        -0.0087
   2970 H           0.1678   -0.0655   -3.2280 H     1    ESP        -0.0072
   2971 H           0.0870    0.3926   -3.2280 H     1    ESP        -0.0069
   2972 H          -0.1456    0.7955   -3.2280 H     1    ESP        -0.0060
   2973 H          -0.5019    1.0945   -3.2280 H     1    ESP        -0.0048
   2974 H          -0.9390    1.2535   -3.2280 H     1    ESP        -0.0034
   2975 H          -1.4042    1.2535   -3.2280 H     1    ESP        -0.0024
   2976 H          -1.8413    1.0945   -3.2280 H     1    ESP        -0.0020
   2977 H          -2.1976    0.7955   -3.2280 H     1    ESP        -0.0019
   2978 H          -2.4302    0.3926   -3.2280 H     1    ESP        -0.0021
   2979 H          -2.5110   -0.0655   -3.2280 H     1    ESP        -0.0022
   2980 H          -2.4302   -0.5236   -3.2280 H     1    ESP        -0.0021
   2981 H          -2.1976   -0.9264   -3.2280 H     1    ESP        -0.0020
   2982 H          -1.8413   -1.2254   -3.2280 H     1    ESP        -0.0020
   2983 H          -1.4042   -1.3845   -3.2280 H     1    ESP        -0.0023
   2984 H          -0.9390   -1.3845   -3.2280 H     1    ESP        -0.0032
   2985 H          -0.5019   -1.2254   -3.2280 H     1    ESP        -0.0045
   2986 H          -0.1456   -0.9264   -3.2280 H     1    ESP        -0.0059
   2987 H           0.0870   -0.5236   -3.2280 H     1    ESP        -0.0069
   2988 H          -0.2657   -0.0655   -3.3751 H     1    ESP        -0.0060
   2989 H          -0.3871    0.3874   -3.3751 H     1    ESP        -0.0056
   2990 H          -0.7187    0.7190   -3.3751 H     1    ESP        -0.0047
   2991 H          -1.1716    0.8404   -3.3751 H     1    ESP        -0.0036
   2992 H          -1.6245    0.7190   -3.3751 H     1    ESP        -0.0030
   2993 H          -1.9561    0.3874   -3.3751 H     1    ESP        -0.0028
   2994 H          -2.0775   -0.0655   -3.3751 H     1    ESP        -0.0028
   2995 H          -1.9561   -0.5184   -3.3751 H     1    ESP        -0.0028
   2996 H          -1.6245   -0.8500   -3.3751 H     1    ESP        -0.0030
   2997 H          -1.1716   -0.9714   -3.3751 H     1    ESP        -0.0035
   2998 H          -0.7187   -0.8500   -3.3751 H     1    ESP        -0.0046
   2999 H          -0.3871   -0.5184   -3.3751 H     1    ESP        -0.0056
   3000 H          -0.7148   -0.0655   -3.4644 H     1    ESP        -0.0050
   3001 H          -0.9432    0.3301   -3.4644 H     1    ESP        -0.0045
   3002 H          -1.4000    0.3301   -3.4644 H     1    ESP        -0.0037
   3003 H          -1.6285   -0.0655   -3.4644 H     1    ESP        -0.0035
   3004 H          -1.4000   -0.4611   -3.4644 H     1    ESP        -0.0037
   3005 H          -0.9432   -0.4611   -3.4644 H     1    ESP        -0.0045
   3006 H          -1.1716   -0.0655   -3.4944 H     1    ESP        -0.0042
   3007 H          -0.1174    3.5861    2.0045 H     1    ESP         0.0079
   3008 H          -0.5805    3.5861    2.0045 H     1    ESP         0.0085
   3009 H          -1.0156    3.4277    2.0045 H     1    ESP         0.0086
   3010 H          -1.3703    3.1300    2.0045 H     1    ESP         0.0082
   3011 H           0.4318    3.7797    1.7061 H     1    ESP         0.0089
   3012 H          -0.0036    3.9345    1.7061 H     1    ESP         0.0098
   3013 H          -0.4647    3.9660    1.7061 H     1    ESP         0.0104
   3014 H          -0.9172    3.8720    1.7061 H     1    ESP         0.0106
   3015 H          -1.3276    3.6594    1.7061 H     1    ESP         0.0105
   3016 H          -1.6653    3.3439    1.7061 H     1    ESP         0.0102
   3017 H          -1.9055    2.9490    1.7061 H     1    ESP         0.0095
   3018 H           0.8427    3.8736    1.3424 H     1    ESP         0.0102
   3019 H           0.4415    4.1053    1.3424 H     1    ESP         0.0109
   3020 H          -0.0024    4.2382    1.3424 H     1    ESP         0.0115
   3021 H          -0.4649    4.2651    1.3424 H     1    ESP         0.0119
   3022 H          -0.9212    4.1846    1.3424 H     1    ESP         0.0121
   3023 H          -1.3467    4.0011    1.3424 H     1    ESP         0.0121
   3024 H          -1.7183    3.7244    1.3424 H     1    ESP         0.0119
   3025 H          -2.0162    3.3695    1.3424 H     1    ESP         0.0115
   3026 H           1.1348    3.9207    0.9274 H     1    ESP         0.0115
   3027 H           0.7597    4.1932    0.9274 H     1    ESP         0.0118
   3028 H           0.3363    4.3817    0.9274 H     1    ESP         0.0123
   3029 H          -0.1171    4.4781    0.9274 H     1    ESP         0.0127
   3030 H          -0.5807    4.4781    0.9274 H     1    ESP         0.0130
   3031 H          -1.0341    4.3817    0.9274 H     1    ESP         0.0131
   3032 H          -1.4576    4.1932    0.9274 H     1    ESP         0.0131
   3033 H          -1.8326    3.9207    0.9274 H     1    ESP         0.0130
   3034 H          -2.1428    3.5762    0.9274 H     1    ESP         0.0127
   3035 H          -2.3745    3.1748    0.9274 H     1    ESP         0.0124
   3036 H           1.3155    3.9374    0.4772 H     1    ESP         0.0125
   3037 H           0.9588    4.2301    0.4772 H     1    ESP         0.0126
   3038 H           0.5519    4.4476    0.4772 H     1    ESP         0.0128
   3039 H           0.1103    4.5816    0.4772 H     1    ESP         0.0132
   3040 H          -0.3489    4.6268    0.4772 H     1    ESP         0.0135
   3041 H          -0.8081    4.5816    0.4772 H     1    ESP         0.0137
   3042 H          -1.2497    4.4476    0.4772 H     1    ESP         0.0138
   3043 H          -1.6567    4.2301    0.4772 H     1    ESP         0.0137
   3044 H          -2.0134    3.9374    0.4772 H     1    ESP         0.0136
   3045 H          -2.3061    3.5807    0.4772 H     1    ESP         0.0133
   3046 H          -2.5236    3.1737    0.4772 H     1    ESP         0.0132
   3047 H           1.3880    3.9291    0.0090 H     1    ESP         0.0130
   3048 H           1.0432    4.2279    0.0090 H     1    ESP         0.0128
   3049 H           0.6481    4.4561    0.0090 H     1    ESP         0.0130
   3050 H           0.2169    4.6053    0.0090 H     1    ESP         0.0133
   3051 H          -0.2347    4.6702    0.0090 H     1    ESP         0.0136
   3052 H          -0.6905    4.6485    0.0090 H     1    ESP         0.0138
   3053 H          -1.1339    4.5409    0.0090 H     1    ESP         0.0140
   3054 H          -1.5489    4.3514    0.0090 H     1    ESP         0.0139
   3055 H          -1.9206    4.0867    0.0090 H     1    ESP         0.0138
   3056 H          -2.2354    3.7565    0.0090 H     1    ESP         0.0136
   3057 H          -2.4821    3.3727    0.0090 H     1    ESP         0.0135
   3058 H           1.3155    3.9374   -0.4592 H     1    ESP         0.0125
   3059 H           0.9588    4.2301   -0.4592 H     1    ESP         0.0126
   3060 H           0.5519    4.4476   -0.4592 H     1    ESP         0.0128
   3061 H           0.1103    4.5816   -0.4592 H     1    ESP         0.0132
   3062 H          -0.3489    4.6268   -0.4592 H     1    ESP         0.0135
   3063 H          -0.8081    4.5816   -0.4592 H     1    ESP         0.0137
   3064 H          -1.2497    4.4476   -0.4592 H     1    ESP         0.0137
   3065 H          -1.6567    4.2301   -0.4592 H     1    ESP         0.0137
   3066 H          -2.0134    3.9374   -0.4592 H     1    ESP         0.0135
   3067 H          -2.3061    3.5807   -0.4592 H     1    ESP         0.0133
   3068 H          -2.5236    3.1737   -0.4592 H     1    ESP         0.0131
   3069 H           1.1348    3.9207   -0.9094 H     1    ESP         0.0115
   3070 H           0.7597    4.1932   -0.9094 H     1    ESP         0.0118
   3071 H           0.3363    4.3817   -0.9094 H     1    ESP         0.0123
   3072 H          -0.1171    4.4781   -0.9094 H     1    ESP         0.0127
   3073 H          -0.5807    4.4781   -0.9094 H     1    ESP         0.0129
   3074 H          -1.0341    4.3817   -0.9094 H     1    ESP         0.0131
   3075 H          -1.4576    4.1932   -0.9094 H     1    ESP         0.0131
   3076 H          -1.8326    3.9207   -0.9094 H     1    ESP         0.0129
   3077 H          -2.1428    3.5762   -0.9094 H     1    ESP         0.0127
   3078 H          -2.3745    3.1748   -0.9094 H     1    ESP         0.0124
   3079 H           0.8427    3.8736   -1.3244 H     1    ESP         0.0101
   3080 H           0.4415    4.1053   -1.3244 H     1    ESP         0.0108
   3081 H          -0.0024    4.2382   -1.3244 H     1    ESP         0.0114
   3082 H          -0.4649    4.2651   -1.3244 H     1    ESP         0.0118
   3083 H          -0.9212    4.1846   -1.3244 H     1    ESP         0.0120
   3084 H          -1.3467    4.0011   -1.3244 H     1    ESP         0.0120
   3085 H          -1.7183    3.7244   -1.3244 H     1    ESP         0.0118
   3086 H          -2.0162    3.3695   -1.3244 H     1    ESP         0.0114
   3087 H           0.4318    3.7797   -1.6881 H     1    ESP         0.0089
   3088 H          -0.0036    3.9345   -1.6881 H     1    ESP         0.0097
   3089 H          -0.4647    3.9660   -1.6881 H     1    ESP         0.0103
   3090 H          -0.9172    3.8720   -1.6881 H     1    ESP         0.0105
   3091 H          -1.3276    3.6594   -1.6881 H     1    ESP         0.0104
   3092 H          -1.6653    3.3439   -1.6881 H     1    ESP         0.0100
   3093 H          -1.9055    2.9490   -1.6881 H     1    ESP         0.0094
   3094 H          -0.1174    3.5861   -1.9865 H     1    ESP         0.0078
   3095 H          -0.5805    3.5861   -1.9865 H     1    ESP         0.0084
   3096 H          -1.0156    3.4277   -1.9865 H     1    ESP         0.0085
   3097 H          -1.3703    3.1300   -1.9865 H     1    ESP         0.0080
   3098 H           3.4767    1.3433    1.9903 H     1    ESP        -0.0013
   3099 H           3.3963    1.7994    1.9903 H     1    ESP         0.0009
   3100 H           3.1648    2.2004    1.9903 H     1    ESP         0.0024
   3101 H           2.8100    2.4981    1.9903 H     1    ESP         0.0032
   3102 H           3.8404    1.3433    1.6918 H     1    ESP        -0.0004
   3103 H           3.7775    1.8012    1.6918 H     1    ESP         0.0019
   3104 H           3.5933    2.2251    1.6918 H     1    ESP         0.0035
   3105 H           3.3017    2.5836    1.6918 H     1    ESP         0.0046
   3106 H           2.9241    2.8501    1.6918 H     1    ESP         0.0053
   3107 H           2.4886    3.0049    1.6918 H     1    ESP         0.0056
   3108 H           3.7775    0.8855    1.6918 H     1    ESP        -0.0035
   3109 H           4.1389    1.3433    1.3281 H     1    ESP         0.0003
   3110 H           4.0851    1.8035    1.3281 H     1    ESP         0.0026
   3111 H           3.9266    2.2389    1.3281 H     1    ESP         0.0043
   3112 H           3.6720    2.6260    1.3281 H     1    ESP         0.0056
   3113 H           3.3350    2.9440    1.3281 H     1    ESP         0.0065
   3114 H           2.9337    3.1757    1.3281 H     1    ESP         0.0071
   3115 H           2.4899    3.3085    1.3281 H     1    ESP         0.0076
   3116 H           2.0273    3.3355    1.3281 H     1    ESP         0.0080
   3117 H           3.9266    0.4477    1.3281 H     1    ESP        -0.0069
   3118 H           4.0851    0.8831    1.3281 H     1    ESP        -0.0028
   3119 H           4.3607    1.3433    0.9132 H     1    ESP         0.0008
   3120 H           4.3122    1.8043    0.9132 H     1    ESP         0.0031
   3121 H           4.1690    2.2452    0.9132 H     1    ESP         0.0049
   3122 H           3.9372    2.6466    0.9132 H     1    ESP         0.0062
   3123 H           3.6270    2.9911    0.9132 H     1    ESP         0.0072
   3124 H           3.2520    3.2636    0.9132 H     1    ESP         0.0079
   3125 H           2.8285    3.4521    0.9132 H     1    ESP         0.0086
   3126 H           2.3751    3.5485    0.9132 H     1    ESP         0.0093
   3127 H           1.9116    3.5485    0.9132 H     1    ESP         0.0102
   3128 H           4.1690    0.4415    0.9132 H     1    ESP        -0.0063
   3129 H           4.3122    0.8823    0.9132 H     1    ESP        -0.0022
   3130 H           4.4972    1.3433    0.4630 H     1    ESP         0.0012
   3131 H           4.4520    1.8025    0.4630 H     1    ESP         0.0034
   3132 H           4.3180    2.2441    0.4630 H     1    ESP         0.0052
   3133 H           4.1005    2.6511    0.4630 H     1    ESP         0.0065
   3134 H           3.8078    3.0078    0.4630 H     1    ESP         0.0075
   3135 H           3.4511    3.3005    0.4630 H     1    ESP         0.0083
   3136 H           3.0441    3.5180    0.4630 H     1    ESP         0.0090
   3137 H           2.6026    3.6520    0.4630 H     1    ESP         0.0098
   3138 H           2.1433    3.6972    0.4630 H     1    ESP         0.0108
   3139 H           4.3180    0.4425    0.4630 H     1    ESP        -0.0059
   3140 H           4.4520    0.8841    0.4630 H     1    ESP        -0.0019
   3141 H           4.5433    1.3433   -0.0052 H     1    ESP         0.0013
   3142 H           4.5000    1.7975   -0.0052 H     1    ESP         0.0035
   3143 H           4.3714    2.2353   -0.0052 H     1    ESP         0.0053
   3144 H           4.1623    2.6409   -0.0052 H     1    ESP         0.0066
   3145 H           3.8803    2.9995   -0.0052 H     1    ESP         0.0076
   3146 H           3.5355    3.2983   -0.0052 H     1    ESP         0.0084
   3147 H           3.1403    3.5264   -0.0052 H     1    ESP         0.0091
   3148 H           2.7092    3.6757   -0.0052 H     1    ESP         0.0099
   3149 H           2.2575    3.7406   -0.0052 H     1    ESP         0.0109
   3150 H           1.8018    3.7189   -0.0052 H     1    ESP         0.0125
   3151 H           4.3714    0.4513   -0.0052 H     1    ESP        -0.0057
   3152 H           4.5000    0.8891   -0.0052 H     1    ESP        -0.0017
   3153 H           4.4972    1.3433   -0.4735 H     1    ESP         0.0012
   3154 H           4.4520    1.8025   -0.4735 H     1    ESP         0.0034
   3155 H           4.3180    2.2441   -0.4735 H     1    ESP         0.0052
   3156 H           4.1005    2.6511   -0.4735 H     1    ESP         0.0065
   3157 H           3.8078    3.0078   -0.4735 H     1    ESP         0.0075
   3158 H           3.4511    3.3005   -0.4735 H     1    ESP         0.0083
   3159 H           3.0441    3.5180   -0.4735 H     1    ESP         0.0090
   3160 H           2.6026    3.6520   -0.4735 H     1    ESP         0.0098
   3161 H           2.1433    3.6972   -0.4735 H     1    ESP         0.0108
   3162 H           4.3180    0.4425   -0.4735 H     1    ESP        -0.0059
   3163 H           4.4520    0.8841   -0.4735 H     1    ESP        -0.0019
   3164 H           4.3607    1.3433   -0.9237 H     1    ESP         0.0008
   3165 H           4.3122    1.8043   -0.9237 H     1    ESP         0.0031
   3166 H           4.1690    2.2452   -0.9237 H     1    ESP         0.0049
   3167 H           3.9372    2.6466   -0.9237 H     1    ESP         0.0062
   3168 H           3.6270    2.9911   -0.9237 H     1    ESP         0.0071
   3169 H           3.2520    3.2636   -0.9237 H     1    ESP         0.0079
   3170 H           2.8285    3.4521   -0.9237 H     1    ESP         0.0085
   3171 H           2.3751    3.5485   -0.9237 H     1    ESP         0.0092
   3172 H           1.9116    3.5485   -0.9237 H     1    ESP         0.0101
   3173 H           4.1690    0.4415   -0.9237 H     1    ESP        -0.0064
   3174 H           4.3122    0.8823   -0.9237 H     1    ESP        -0.0022
   3175 H           4.1389    1.3433   -1.3386 H     1    ESP         0.0003
   3176 H           4.0851    1.8035   -1.3386 H     1    ESP         0.0026
   3177 H           3.9266    2.2389   -1.3386 H     1    ESP         0.0043
   3178 H           3.6720    2.6260   -1.3386 H     1    ESP         0.0056
   3179 H           3.3350    2.9440   -1.3386 H     1    ESP         0.0064
   3180 H           2.9337    3.1757   -1.3386 H     1    ESP         0.0071
   3181 H           2.4899    3.3085   -1.3386 H     1    ESP         0.0075
   3182 H           2.0273    3.3355   -1.3386 H     1    ESP         0.0080
   3183 H           3.9266    0.4477   -1.3386 H     1    ESP        -0.0070
   3184 H           4.0851    0.8831   -1.3386 H     1    ESP        -0.0028
   3185 H           3.8404    1.3433   -1.7023 H     1    ESP        -0.0005
   3186 H           3.7775    1.8012   -1.7023 H     1    ESP         0.0019
   3187 H           3.5933    2.2251   -1.7023 H     1    ESP         0.0035
   3188 H           3.3017    2.5836   -1.7023 H     1    ESP         0.0046
   3189 H           2.9241    2.8501   -1.7023 H     1    ESP         0.0053
   3190 H           2.4886    3.0049   -1.7023 H     1    ESP         0.0056
   3191 H           3.7775    0.8855   -1.7023 H     1    ESP        -0.0036
   3192 H           3.4767    1.3433   -2.0008 H     1    ESP        -0.0014
   3193 H           3.3963    1.7994   -2.0008 H     1    ESP         0.0009
   3194 H           3.1648    2.2004   -2.0008 H     1    ESP         0.0024
   3195 H           2.8100    2.4981   -2.0008 H     1    ESP         0.0032
   3196 H          -1.0149   -3.1109    1.9872 H     1    ESP         0.0070
   3197 H          -0.6602   -3.4085    1.9872 H     1    ESP         0.0066
   3198 H          -0.2250   -3.5669    1.9872 H     1    ESP         0.0056
   3199 H           0.2380   -3.5669    1.9872 H     1    ESP         0.0037
   3200 H           0.6732   -3.4085    1.9872 H     1    ESP         0.0010
   3201 H          -1.3099   -3.3248    1.6887 H     1    ESP         0.0091
   3202 H          -0.9722   -3.6403    1.6887 H     1    ESP         0.0088
   3203 H          -0.5618   -3.8529    1.6887 H     1    ESP         0.0080
   3204 H          -0.1093   -3.9469    1.6887 H     1    ESP         0.0068
   3205 H           0.3518   -3.9154    1.6887 H     1    ESP         0.0049
   3206 H           0.7873   -3.7606    1.6887 H     1    ESP         0.0024
   3207 H           1.1648   -3.4941    1.6887 H     1    ESP        -0.0010
   3208 H          -1.6607   -3.3504    1.3250 H     1    ESP         0.0110
   3209 H          -1.3629   -3.7053    1.3250 H     1    ESP         0.0106
   3210 H          -0.9913   -3.9820    1.3250 H     1    ESP         0.0101
   3211 H          -0.5658   -4.1655    1.3250 H     1    ESP         0.0092
   3212 H          -0.1095   -4.2460    1.3250 H     1    ESP         0.0080
   3213 H           0.3530   -4.2190    1.3250 H     1    ESP         0.0063
   3214 H           0.7969   -4.0861    1.3250 H     1    ESP         0.0040
   3215 H           1.1982   -3.8545    1.3250 H     1    ESP         0.0009
   3216 H           1.5352   -3.5365    1.3250 H     1    ESP        -0.0031
   3217 H          -1.7873   -3.5571    0.9101 H     1    ESP         0.0122
   3218 H          -1.4772   -3.9016    0.9101 H     1    ESP         0.0117
   3219 H          -1.1021   -4.1741    0.9101 H     1    ESP         0.0111
   3220 H          -0.6787   -4.3626    0.9101 H     1    ESP         0.0103
   3221 H          -0.2253   -4.4590    0.9101 H     1    ESP         0.0092
   3222 H           0.2383   -4.4590    0.9101 H     1    ESP         0.0077
   3223 H           0.6917   -4.3626    0.9101 H     1    ESP         0.0057
   3224 H           1.1152   -4.1741    0.9101 H     1    ESP         0.0031
   3225 H           1.4902   -3.9016    0.9101 H     1    ESP        -0.0004
   3226 H           1.8003   -3.5571    0.9101 H     1    ESP        -0.0050
   3227 H          -1.9507   -3.5616    0.4599 H     1    ESP         0.0131
   3228 H          -1.6579   -3.9183    0.4599 H     1    ESP         0.0125
   3229 H          -1.3012   -4.2110    0.4599 H     1    ESP         0.0119
   3230 H          -0.8943   -4.4285    0.4599 H     1    ESP         0.0112
   3231 H          -0.4527   -4.5625    0.4599 H     1    ESP         0.0103
   3232 H           0.0065   -4.6077    0.4599 H     1    ESP         0.0090
   3233 H           0.4657   -4.5625    0.4599 H     1    ESP         0.0074
   3234 H           0.9073   -4.4285    0.4599 H     1    ESP         0.0052
   3235 H           1.3143   -4.2110    0.4599 H     1    ESP         0.0024
   3236 H           1.6710   -3.9183    0.4599 H     1    ESP        -0.0013
   3237 H           1.9637   -3.5616    0.4599 H     1    ESP        -0.0064
   3238 H          -1.8800   -3.7374   -0.0084 H     1    ESP         0.0131
   3239 H          -1.5652   -4.0676   -0.0084 H     1    ESP         0.0125
   3240 H          -1.1935   -4.3323   -0.0084 H     1    ESP         0.0119
   3241 H          -0.7785   -4.5218   -0.0084 H     1    ESP         0.0112
   3242 H          -0.3350   -4.6294   -0.0084 H     1    ESP         0.0102
   3243 H           0.1207   -4.6511   -0.0084 H     1    ESP         0.0088
   3244 H           0.5723   -4.5862   -0.0084 H     1    ESP         0.0071
   3245 H           1.0035   -4.4369   -0.0084 H     1    ESP         0.0049
   3246 H           1.3986   -4.2088   -0.0084 H     1    ESP         0.0020
   3247 H           1.7435   -3.9100   -0.0084 H     1    ESP        -0.0019
   3248 H          -1.9507   -3.5616   -0.4766 H     1    ESP         0.0131
   3249 H          -1.6579   -3.9183   -0.4766 H     1    ESP         0.0125
   3250 H          -1.3012   -4.2110   -0.4766 H     1    ESP         0.0119
   3251 H          -0.8943   -4.4285   -0.4766 H     1    ESP         0.0112
   3252 H          -0.4527   -4.5625   -0.4766 H     1    ESP         0.0103
   3253 H           0.0065   -4.6077   -0.4766 H     1    ESP         0.0090
   3254 H           0.4657   -4.5625   -0.4766 H     1    ESP         0.0074
   3255 H           0.9073   -4.4285   -0.4766 H     1    ESP         0.0052
   3256 H           1.3143   -4.2110   -0.4766 H     1    ESP         0.0024
   3257 H           1.6710   -3.9183   -0.4766 H     1    ESP        -0.0013
   3258 H           1.9637   -3.5616   -0.4766 H     1    ESP        -0.0064
   3259 H          -1.7873   -3.5571   -0.9268 H     1    ESP         0.0122
   3260 H          -1.4772   -3.9016   -0.9268 H     1    ESP         0.0117
   3261 H          -1.1021   -4.1741   -0.9268 H     1    ESP         0.0111
   3262 H          -0.6787   -4.3626   -0.9268 H     1    ESP         0.0103
   3263 H          -0.2253   -4.4590   -0.9268 H     1    ESP         0.0092
   3264 H           0.2383   -4.4590   -0.9268 H     1    ESP         0.0077
   3265 H           0.6917   -4.3626   -0.9268 H     1    ESP         0.0057
   3266 H           1.1152   -4.1741   -0.9268 H     1    ESP         0.0031
   3267 H           1.4902   -3.9016   -0.9268 H     1    ESP        -0.0004
   3268 H           1.8003   -3.5571   -0.9268 H     1    ESP        -0.0050
   3269 H          -1.6607   -3.3504   -1.3417 H     1    ESP         0.0109
   3270 H          -1.3629   -3.7053   -1.3417 H     1    ESP         0.0106
   3271 H          -0.9913   -3.9820   -1.3417 H     1    ESP         0.0100
   3272 H          -0.5658   -4.1655   -1.3417 H     1    ESP         0.0092
   3273 H          -0.1095   -4.2460   -1.3417 H     1    ESP         0.0080
   3274 H           0.3530   -4.2190   -1.3417 H     1    ESP         0.0063
   3275 H           0.7969   -4.0861   -1.3417 H     1    ESP         0.0040
   3276 H           1.1982   -3.8545   -1.3417 H     1    ESP         0.0009
   3277 H           1.5352   -3.5365   -1.3417 H     1    ESP        -0.0031
   3278 H          -1.3099   -3.3248   -1.7054 H     1    ESP         0.0091
   3279 H          -0.9722   -3.6403   -1.7054 H     1    ESP         0.0087
   3280 H          -0.5618   -3.8529   -1.7054 H     1    ESP         0.0080
   3281 H          -0.1093   -3.9469   -1.7054 H     1    ESP         0.0068
   3282 H           0.3518   -3.9154   -1.7054 H     1    ESP         0.0049
   3283 H           0.7873   -3.7606   -1.7054 H     1    ESP         0.0024
   3284 H           1.1648   -3.4941   -1.7054 H     1    ESP        -0.0011
   3285 H          -1.0149   -3.1109   -2.0039 H     1    ESP         0.0069
   3286 H          -0.6602   -3.4085   -2.0039 H     1    ESP         0.0066
   3287 H          -0.2250   -3.5669   -2.0039 H     1    ESP         0.0056
   3288 H           0.2380   -3.5669   -2.0039 H     1    ESP         0.0037
   3289 H           0.6732   -3.4085   -2.0039 H     1    ESP         0.0010
